@<TRIPOS>MOLECULE
N34
   63    66     1     0     0
SMALL
bcc


@<TRIPOS>ATOM
      1 C4          -2.1320     0.5110     0.8970 ca         1 N34       0.283400
      2 C5          -4.9090     0.1910     0.5670 ca         1 N34       0.065600
      3 C6          -2.6790    -0.6250     0.2920 ca         1 N34      -0.338500
      4 C7           1.4980     0.4030     0.4790 ce         1 N34      -0.493800
      5 C8           1.8660     1.4290     1.3270 c2         1 N34       0.254900
      6 C10          2.5370    -0.3900    -0.1980 c          1 N34       0.742700
      7 C13          3.8660     2.4700    -0.7030 c5         1 N34       0.144800
      8 C15          7.9960    -1.0370    -0.4580 c3         1 N34      -0.085100
      9 C17          7.5820    -2.5030     1.5120 c3         1 N34      -0.085100
     10 C21          6.9880    -1.9790     0.2020 c3         1 N34      -0.042000
     11 O31         -6.7830     2.3650    -0.3800 o          1 N34      -0.595300
     12 S34         -7.1420     0.9860    -0.6560 s6         1 N34       1.219900
     13 O30         -8.5280     0.5640    -0.5580 o          1 N34      -0.595300
     14 C18         -6.5210     0.5570    -2.2640 c3         1 N34      -0.271300
     15 N26         -6.3060     0.0330     0.4290 nu         1 N34      -0.678500
     16 C2          -4.3900     1.3170     1.2120 ca         1 N34      -0.035000
     17 C3          -4.0440    -0.7860     0.1020 ca         1 N34      -0.041000
     18 S33         -1.6020    -1.9400    -0.0970 sy         1 N34       1.333200
     19 O28         -1.4020    -2.7560     1.0860 o          1 N34      -0.593300
     20 O29         -1.9730    -2.6030    -1.3310 o          1 N34      -0.593300
     21 N23         -0.2320    -1.0420    -0.3960 nu         1 N34      -0.812100
     22 C9           0.1010     0.0220     0.3940 ce         1 N34       0.828500
     23 N22         -0.7830     0.7350     1.0320 nf         1 N34      -0.780100
     24 C1          -3.0300     1.4790     1.3590 ca         1 N34      -0.135000
     25 O27          2.2920    -1.4910    -0.7100 o          1 N34      -0.671500
     26 N24          3.7810     0.1210    -0.2090 n          1 N34      -0.332200
     27 N25          4.0410     1.3880     0.2810 n3         1 N34      -0.473600
     28 C11          3.5970     3.7180     0.1490 c5         1 N34      -0.091400
     29 C14          3.3280     1.7420     1.4880 c5         1 N34       0.179700
     30 C12          3.6390     3.2280     1.6030 c5         1 N34      -0.070400
     31 O32          1.0350     2.1220     2.0340 oh         1 N34      -0.483100
     32 C19          5.6830    -1.2430     0.5420 c3         1 N34      -0.090400
     33 C16          6.7120    -3.1660    -0.7250 c3         1 N34      -0.085100
     34 H13          4.7690     2.5550    -1.3100 h1         1 N34       0.059700
     35 H13A         3.0320     2.2670    -1.3820 h1         1 N34       0.059700
     36 H15          8.9520    -1.5450    -0.6040 hc         1 N34       0.034256
     37 H15A         7.6620    -0.6940    -1.4380 hc         1 N34       0.034256
     38 H15B         8.1800    -0.1540     0.1580 hc         1 N34       0.034256
     39 H17          7.8010    -1.6870     2.2040 hc         1 N34       0.034256
     40 H17A         6.8920    -3.1860     2.0130 hc         1 N34       0.034256
     41 H17B         8.5140    -3.0420     1.3300 hc         1 N34       0.034256
     42 H20          4.6180    -1.3990    -1.3450 h1         1 N34       0.066200
     43 H20A         5.5870     0.0550    -1.1960 h1         1 N34       0.066200
     44 H18         -5.4520     0.7540    -2.3070 h1         1 N34       0.105033
     45 H18A        -6.7220    -0.4950    -2.4540 h1         1 N34       0.105033
     46 H18B        -7.0380     1.1750    -2.9960 h1         1 N34       0.105033
     47 HN26        -6.6240    -0.9310     0.4030 hn         1 N34       0.435800
     48 H2          -5.0590     2.0660     1.6100 ha         1 N34       0.169000
     49 H3          -4.4320    -1.6700    -0.3890 ha         1 N34       0.148000
     50 HN23         0.5970    -1.5480    -0.7670 hn         1 N34       0.517800
     51 H1          -2.6380     2.3640     1.8430 ha         1 N34       0.152000
     52 H11          4.3270     4.5050    -0.0290 hc         1 N34       0.058200
     53 H11A         2.6150     4.1290    -0.0870 hc         1 N34       0.058200
     54 H14          3.7050     1.1770     2.3490 h1         1 N34       0.110700
     55 H12          4.6390     3.3340     2.0220 hc         1 N34       0.071200
     56 H12A         2.9510     3.7600     2.2560 hc         1 N34       0.071200
     57 HO32         0.0970     1.7720     1.8160 ho         1 N34       0.524000
     58 H19          5.9040    -0.4430     1.2570 hc         1 N34       0.049200
     59 H19A         5.0080    -1.9390     1.0530 hc         1 N34       0.049200
     60 H16          7.6300    -3.7270    -0.9150 hc         1 N34       0.034256
     61 H16A         5.9870    -3.8530    -0.2820 hc         1 N34       0.034256
     62 H16B         6.3220    -2.8490    -1.6940 hc         1 N34       0.034256
     63 C20          4.9440    -0.6330    -0.6440 c3         1 N34       0.132000
@<TRIPOS>BOND
     1     1     3 ar  
     2     1    23 1   
     3     1    24 ar  
     4     2    15 1   
     5     2    16 ar  
     6     2    17 ar  
     7     3    17 ar  
     8     3    18 1   
     9     4     5 2   
    10     4     6 1   
    11     4    22 1   
    12     5    29 1   
    13     5    31 1   
    14     6    25 2   
    15     6    26 1   
    16     7    27 1   
    17     7    28 1   
    18     7    34 1   
    19     7    35 1   
    20     8    10 1   
    21     8    36 1   
    22     8    37 1   
    23     8    38 1   
    24     9    10 1   
    25     9    39 1   
    26     9    40 1   
    27     9    41 1   
    28    10    32 1   
    29    10    33 1   
    30    11    12 2   
    31    12    13 2   
    32    12    14 1   
    33    12    15 1   
    34    14    44 1   
    35    14    45 1   
    36    14    46 1   
    37    15    47 1   
    38    16    24 ar  
    39    16    48 1   
    40    17    49 1   
    41    18    19 2   
    42    18    20 2   
    43    18    21 1   
    44    21    22 1   
    45    21    50 1   
    46    22    23 2   
    47    24    51 1   
    48    26    27 1   
    49    26    63 1   
    50    27    29 1   
    51    28    30 1   
    52    28    52 1   
    53    28    53 1   
    54    29    30 1   
    55    29    54 1   
    56    30    55 1   
    57    30    56 1   
    58    31    57 1   
    59    32    58 1   
    60    32    59 1   
    61    32    63 1   
    62    33    60 1   
    63    33    61 1   
    64    33    62 1   
    65    42    63 1   
    66    43    63 1   
@<TRIPOS>SUBSTRUCTURE
     1 N34         1 TEMP              0 ****  ****    0 ROOT
