@<TRIPOS>MOLECULE
N35
   63    66     1     0     0
SMALL
No Charge or Current Charge


@<TRIPOS>ATOM
      1 C4          -2.1960     0.4170    -0.1310 ca         1 N35       0.278400
      2 C5          -4.9520    -0.0660     0.3130 ca         1 N35       0.205000
      3 C6          -2.6580    -0.8730     0.0740 ca         1 N35      -0.336500
      4 C7           1.5070     0.1110     0.0490 cc         1 N35      -0.447800
      5 C8           1.9720     1.4320     0.0340 cd         1 N35       0.194500
      6 C10          3.4040     1.7100     0.2990 cd         1 N35       0.588500
      7 C13          5.3960     4.8240     0.7620 c5         1 N35      -0.095900
      8 C15          5.3540     3.2770     0.8160 c5         1 N35       0.223300
      9 C17          7.6850    -3.2400    -1.2560 c3         1 N35      -0.089600
     10 C21          6.8240    -2.9860     0.0020 c3         1 N35      -0.056700
     11 O32         -7.5520     1.7900     0.9040 o          1 N35      -0.524000
     12 S35         -7.6680     0.5230     0.1780 s6         1 N35       1.188100
     13 O31         -8.7840    -0.3860     0.4380 o          1 N35      -0.524000
     14 C18         -7.5660     0.8270    -1.5720 c3         1 N35      -0.382100
     15 N27         -6.3050    -0.3580     0.5390 nu         1 N35      -0.873100
     16 C2          -4.4710     1.2500     0.1170 ca         1 N35      -0.013000
     17 C3          -4.0270    -1.1300     0.2940 ca         1 N35      -0.024000
     18 S34         -1.4520    -2.1510     0.0210 sy         1 N35       1.196600
     19 O29         -0.9740    -2.4370     1.3730 o          1 N35      -0.522500
     20 O30         -1.8820    -3.2150    -0.8870 o          1 N35      -0.522500
     21 N24         -0.1540    -1.4610    -0.7150 nu         1 N35      -0.876300
     22 C9           0.1130    -0.2460    -0.1800 ce         1 N35       0.821500
     23 N22         -0.8240     0.6440    -0.3620 nf         1 N35      -0.768100
     24 C1          -3.1000     1.4860    -0.1070 ca         1 N35      -0.114000
     25 C11          2.4700    -0.9790     0.3560 c          1 N35       0.570200
     26 O28          2.1530    -2.1610     0.3960 o          1 N35      -0.599000
     27 N26          3.8030    -0.5580     0.5990 n          1 N35      -0.097800
     28 C19          5.6600    -2.0080    -0.3100 c3         1 N35      -0.095400
     29 C16          6.3370    -4.3230     0.6120 c3         1 N35      -0.089600
     30 N23          4.2640     0.7400     0.5770 nc         1 N35      -0.510300
     31 O33          1.0960     2.4400    -0.2160 oh         1 N35      -0.524100
     32 N25          3.9880     3.0000     0.2950 nh         1 N35      -0.740600
     33 C14          3.3980     4.1770    -0.3940 c5         1 N35       0.223300
     34 C12          4.6350     5.0960    -0.5600 c5         1 N35      -0.095900
     35 H13          4.8780     5.2670     1.6220 hc         1 N35       0.057200
     36 H13A         6.4200     5.2140     0.7550 hc         1 N35       0.057200
     37 H15          6.1230     2.8330     0.1670 h1         1 N35       0.055450
     38 H15A         5.5040     2.9010     1.8380 h1         1 N35       0.055450
     39 H17          8.0790    -2.2970    -1.6550 hc         1 N35       0.035033
     40 H17A         8.5380    -3.8870    -1.0190 hc         1 N35       0.035033
     41 H17B         7.0940    -3.7250    -2.0430 hc         1 N35       0.035033
     42 H20          5.5240    -1.1340     1.6680 h1         1 N35       0.072700
     43 H20A         4.3710    -2.4380     1.3960 h1         1 N35       0.072700
     44 H21          7.4740    -2.5040     0.7440 hc         1 N35       0.043700
     45 H18         -6.6620     1.4120    -1.7610 h1         1 N35       0.105367
     46 H18A        -7.5230    -0.1450    -2.0740 h1         1 N35       0.105367
     47 H18B        -8.4640     1.3820    -1.8600 h1         1 N35       0.105367
     48 HN27        -6.5980    -1.3260     0.5720 hn         1 N35       0.491000
     49 H2          -5.1450     2.0990     0.1390 ha         1 N35       0.149000
     50 H3          -4.3730    -2.1500     0.4470 ha         1 N35       0.130000
     51 HN24         0.5870    -2.0970    -0.4510 hn         1 N35       0.581000
     52 H1          -2.7420     2.5000    -0.2620 ha         1 N35       0.135000
     53 H19          4.9820    -2.4690    -1.0410 hc         1 N35       0.052200
     54 H19A         6.0720    -1.1110    -0.7890 hc         1 N35       0.052200
     55 H16          5.8460    -4.1650     1.5790 hc         1 N35       0.035033
     56 H16A         5.6280    -4.8230    -0.0590 hc         1 N35       0.035033
     57 H16B         7.1830    -5.0010     0.7800 hc         1 N35       0.035033
     58 HO33         0.2150     1.9880    -0.3370 ho         1 N35       0.559000
     59 H14          2.9550     3.9250    -1.3680 h1         1 N35       0.055450
     60 H14A         2.6280     4.6540     0.2290 h1         1 N35       0.055450
     61 H12          4.3590     6.1490    -0.6860 hc         1 N35       0.057200
     62 H12A         5.2320     4.8050    -1.4330 hc         1 N35       0.057200
     63 C20          4.8400    -1.5660     0.9250 c3         1 N35       0.119000
@<TRIPOS>BOND
     1     1     3 ar  
     2     1    23 1   
     3     1    24 ar  
     4     2    15 1   
     5     2    16 ar  
     6     2    17 ar  
     7     3    17 ar  
     8     3    18 1   
     9     4     5 2   
    10     4    22 1   
    11     4    25 1   
    12     5     6 1   
    13     5    31 1   
    14     6    30 2   
    15     6    32 1   
    16     7     8 1   
    17     7    34 1   
    18     7    35 1   
    19     7    36 1   
    20     8    32 1   
    21     8    37 1   
    22     8    38 1   
    23     9    10 1   
    24     9    39 1   
    25     9    40 1   
    26     9    41 1   
    27    10    28 1   
    28    10    29 1   
    29    10    44 1   
    30    11    12 2   
    31    12    13 2   
    32    12    14 1   
    33    12    15 1   
    34    14    45 1   
    35    14    46 1   
    36    14    47 1   
    37    15    48 1   
    38    16    24 ar  
    39    16    49 1   
    40    17    50 1   
    41    18    19 2   
    42    18    20 2   
    43    18    21 1   
    44    21    22 1   
    45    21    51 1   
    46    22    23 2   
    47    24    52 1   
    48    25    26 2   
    49    25    27 1   
    50    27    30 1   
    51    27    63 1   
    52    28    53 1   
    53    28    54 1   
    54    28    63 1   
    55    29    55 1   
    56    29    56 1   
    57    29    57 1   
    58    31    58 1   
    59    32    33 1   
    60    33    34 1   
    61    33    59 1   
    62    33    60 1   
    63    34    61 1   
    64    34    62 1   
    65    42    63 1   
    66    43    63 1   
@<TRIPOS>SUBSTRUCTURE
     1 N35         1 TEMP              0 ****  ****    0 ROOT
