@<TRIPOS>MOLECULE
N35
   63    66     1     0     0
SMALL
abcg2


@<TRIPOS>ATOM
      1 C4          -2.0960     0.7310     0.6980 ca         1 N35       0.278400
      2 C5          -4.8660     0.4060     0.3460 ca         1 N35       0.205000
      3 C6          -2.7170    -0.5140     0.8430 ca         1 N35      -0.336500
      4 C7           1.5260     0.2090     0.7100 cc         1 N35      -0.447800
      5 C8           1.9650     1.5190     0.6920 cd         1 N35       0.194500
      6 C10          3.3960     1.7560     0.6420 cd         1 N35       0.588500
      7 C13          5.5300     4.6890     0.6690 c5         1 N35      -0.095900
      8 C15          5.3440     3.1880     0.8110 c5         1 N35       0.223300
      9 C17          6.8890    -3.0440    -2.1690 c3         1 N35      -0.089600
     10 C21          6.3990    -2.8900    -0.7320 c3         1 N35      -0.056700
     11 O32         -6.3520     1.5390    -1.9850 o          1 N35      -0.524000
     12 S35         -6.9140     0.3580    -1.3540 s6         1 N35       1.188100
     13 O31         -8.3500     0.2410    -1.1780 o          1 N35      -0.524000
     14 C18         -6.3190    -1.0730    -2.2230 c3         1 N35      -0.382100
     15 N27         -6.2620     0.2670     0.1800 nu         1 N35      -0.873100
     16 C2          -4.2740     1.6680     0.2400 ca         1 N35      -0.013000
     17 C3          -4.0790    -0.6920     0.6510 ca         1 N35      -0.024000
     18 S34         -1.7480    -1.8510     1.4060 sy         1 N35       1.196600
     19 O29         -1.6680    -1.8040     2.8530 o          1 N35      -0.522500
     20 O30         -2.1290    -3.1000     0.7780 o          1 N35      -0.522500
     21 N24         -0.2940    -1.3760     0.7510 nu         1 N35      -0.876300
     22 C9           0.0960    -0.0720     0.7700 ce         1 N35       0.821500
     23 N22         -0.7360     0.9250     0.7900 nf         1 N35      -0.768100
     24 C1          -2.9150     1.8240     0.4000 ca         1 N35      -0.114000
     25 C11          2.4840    -0.8740     0.7120 c          1 N35       0.570200
     26 O28          2.1670    -2.0770     0.6940 o          1 N35      -0.599000
     27 N26          3.7840    -0.5000     0.7520 n          1 N35      -0.097800
     28 C19          5.2730    -1.8570    -0.6750 c3         1 N35      -0.095400
     29 C16          5.9640    -4.2430    -0.1750 c3         1 N35      -0.089600
     30 N23          4.2250     0.7590     0.6750 nc         1 N35      -0.510300
     31 O33          1.1730     2.5490     0.7490 oh         1 N35      -0.524100
     32 N25          3.9060     3.0170     0.6470 nh         1 N35      -0.740600
     33 C14          3.3040     4.1690    -0.0410 c5         1 N35       0.223300
     34 C12          4.5060     5.0380    -0.4040 c5         1 N35      -0.095900
     35 H13          5.2910     5.1940     1.6070 hc         1 N35       0.057200
     36 H13A         6.5510     4.9510     0.3940 hc         1 N35       0.057200
     37 H15          5.9030     2.6510     0.0350 h1         1 N35       0.055450
     38 H15A         5.6700     2.7960     1.7760 h1         1 N35       0.055450
     39 H17          7.2320    -2.0940    -2.5810 hc         1 N35       0.035033
     40 H17A         7.7170    -3.7510    -2.2320 hc         1 N35       0.035033
     41 H17B         6.0870    -3.4150    -2.8130 hc         1 N35       0.035033
     42 H20          5.6760    -1.0870     1.3060 h1         1 N35       0.072700
     43 H20A         4.4860    -2.3790     1.2820 h1         1 N35       0.072700
     44 H21          7.2350    -2.5180    -0.1260 hc         1 N35       0.043700
     45 H18         -5.2310    -1.0660    -2.2320 h1         1 N35       0.105367
     46 H18A        -6.6890    -1.9700    -1.7320 h1         1 N35       0.105367
     47 H18B        -6.6940    -1.0230    -3.2430 h1         1 N35       0.105367
     48 HN27        -6.6850    -0.4760     0.7270 hn         1 N35       0.491000
     49 H2          -4.8890     2.5330     0.0390 ha         1 N35       0.149000
     50 H3          -4.5250    -1.6750     0.7490 ha         1 N35       0.130000
     51 HN24         0.5010    -2.0510     0.7320 hn         1 N35       0.581000
     52 H1          -2.4650     2.8030     0.2980 ha         1 N35       0.135000
     53 H19          4.4110    -2.2330    -1.2360 hc         1 N35       0.052200
     54 H19A         5.6000    -0.9400    -1.1740 hc         1 N35       0.052200
     55 H16          5.6750    -4.1910     0.8750 hc         1 N35       0.035033
     56 H16A         5.1100    -4.6300    -0.7360 hc         1 N35       0.035033
     57 H16B         6.7700    -4.9740    -0.2530 hc         1 N35       0.035033
     58 HO33         0.2220     2.1920     0.7750 ho         1 N35       0.559000
     59 H14          2.7440     3.8690    -0.9270 h1         1 N35       0.055450
     60 H14A         2.6260     4.7070     0.6220 h1         1 N35       0.055450
     61 H12          4.2460     6.0960    -0.4310 hc         1 N35       0.057200
     62 H12A         4.8880     4.7620    -1.3880 hc         1 N35       0.057200
     63 C20          4.8430    -1.5050     0.7420 c3         1 N35       0.119000
@<TRIPOS>BOND
     1     1     3 ar  
     2     1    23 1   
     3     1    24 ar  
     4     2    15 1   
     5     2    16 ar  
     6     2    17 ar  
     7     3    17 ar  
     8     3    18 1   
     9     4     5 2   
    10     4    22 1   
    11     4    25 1   
    12     5     6 1   
    13     5    31 1   
    14     6    30 2   
    15     6    32 1   
    16     7     8 1   
    17     7    34 1   
    18     7    35 1   
    19     7    36 1   
    20     8    32 1   
    21     8    37 1   
    22     8    38 1   
    23     9    10 1   
    24     9    39 1   
    25     9    40 1   
    26     9    41 1   
    27    10    28 1   
    28    10    29 1   
    29    10    44 1   
    30    11    12 2   
    31    12    13 2   
    32    12    14 1   
    33    12    15 1   
    34    14    45 1   
    35    14    46 1   
    36    14    47 1   
    37    15    48 1   
    38    16    24 ar  
    39    16    49 1   
    40    17    50 1   
    41    18    19 2   
    42    18    20 2   
    43    18    21 1   
    44    21    22 1   
    45    21    51 1   
    46    22    23 2   
    47    24    52 1   
    48    25    26 2   
    49    25    27 1   
    50    27    30 1   
    51    27    63 1   
    52    28    53 1   
    53    28    54 1   
    54    28    63 1   
    55    29    55 1   
    56    29    56 1   
    57    29    57 1   
    58    31    58 1   
    59    32    33 1   
    60    33    34 1   
    61    33    59 1   
    62    33    60 1   
    63    34    61 1   
    64    34    62 1   
    65    42    63 1   
    66    43    63 1   
@<TRIPOS>SUBSTRUCTURE
     1 N35         1 TEMP              0 ****  ****    0 ROOT
