@<TRIPOS>MOLECULE
N36
   22    22     1     0     0
SMALL
abcg2


@<TRIPOS>ATOM
      1 C1          -2.2100    61.4910   164.1090 ca         1 N36       0.154100
      2 C2          -3.3500    61.9750   163.4790 ca         1 N36      -0.145000
      3 C3          -3.4010    63.2840   163.0350 ca         1 N36      -0.038000
      4 C4          -2.3070    64.1230   163.2190 ca         1 N36      -0.211600
      5 C5          -2.3250    65.5140   162.7670 c          1 N36       0.588500
      6 C6          -1.1550    63.6410   163.8510 ca         1 N36      -0.114000
      7 C7          -1.0980    62.3350   164.2970 ca         1 N36       0.035100
      8 C8           1.1160    62.5280   165.1660 c3         1 N36       0.173600
      9 C9           2.1080    61.6600   165.8990 c3         1 N36      -0.097100
     10 O1          -2.1920    60.2210   164.5290 oh         1 N36      -0.527100
     11 O3          -0.0530    61.7560   164.9190 os         1 N36      -0.376100
     12 H1          -4.1940    61.3120   163.3420 ha         1 N36       0.136000
     13 H2          -4.2940    63.6500   162.5470 ha         1 N36       0.136000
     14 H3          -1.3940    66.0740   162.9770 h4         1 N36      -0.017800
     15 H6          -0.3120    64.3100   163.9840 ha         1 N36       0.118000
     16 H7           1.5370    62.8800   164.2180 h1         1 N36       0.035700
     17 H8           0.8600    63.4090   165.7640 h1         1 N36       0.035700
     18 H9           3.0130    62.2360   166.0930 hc         1 N36       0.049700
     19 H10          1.7130    61.3260   166.8590 hc         1 N36       0.049700
     20 H11          2.3870    60.7850   165.3120 hc         1 N36       0.049700
     21 H12         -1.3430    60.0110   164.9400 ho         1 N36       0.487000
     22 O2          -3.2550    66.0520   162.2090 o          1 N36      -0.522100
@<TRIPOS>BOND
     1     1     2 ar  
     2     1     7 ar  
     3     1    10 1   
     4     2     3 ar  
     5     2    12 1   
     6     3     4 ar  
     7     3    13 1   
     8     4     5 1   
     9     4     6 ar  
    10     5    14 1   
    11     5    22 2   
    12     6     7 ar  
    13     6    15 1   
    14     7    11 1   
    15     8     9 1   
    16     8    11 1   
    17     8    16 1   
    18     8    17 1   
    19     9    18 1   
    20     9    19 1   
    21     9    20 1   
    22    10    21 1   
@<TRIPOS>SUBSTRUCTURE
     1 N36         1 TEMP              0 ****  ****    0 ROOT
