@<TRIPOS>MOLECULE
N36
   22    22     1     0     0
SMALL
No Charge or Current Charge


@<TRIPOS>ATOM
      1 C1          -2.2470    61.4710   164.1060 ca         1 N36       0.154100
      2 C2          -3.3930    61.9590   163.4630 ca         1 N36      -0.145000
      3 C3          -3.4350    63.2890   163.0120 ca         1 N36      -0.038000
      4 C4          -2.3250    64.1400   163.2040 ca         1 N36      -0.211600
      5 C5          -2.3600    65.5690   162.7250 c          1 N36       0.588500
      6 C6          -1.1720    63.6450   163.8530 ca         1 N36      -0.114000
      7 C7          -1.1290    62.3060   164.3060 ca         1 N36       0.035100
      8 C8           1.1660    62.5420   165.1990 c3         1 N36       0.173600
      9 C9           2.1670    61.6260   165.9200 c3         1 N36      -0.097100
     10 O1          -2.2080    60.1800   164.5420 oh         1 N36      -0.527100
     11 O3          -0.0230    61.7720   164.9470 os         1 N36      -0.376100
     12 H1          -4.2500    61.3070   163.3130 ha         1 N36       0.136000
     13 H2          -4.3320    63.6560   162.5140 ha         1 N36       0.136000
     14 H3          -1.4430    66.1690   162.9170 h4         1 N36      -0.017800
     15 H6          -0.3230    64.3090   163.9950 ha         1 N36       0.118000
     16 H7           1.6070    62.8970   164.2580 h1         1 N36       0.035700
     17 H8           0.9420    63.4090   165.8340 h1         1 N36       0.035700
     18 H9           3.0930    62.1710   166.1340 hc         1 N36       0.049700
     19 H10          1.7500    61.2700   166.8690 hc         1 N36       0.049700
     20 H11          2.4140    60.7590   165.2960 hc         1 N36       0.049700
     21 H12         -1.3240    60.0590   164.9550 ho         1 N36       0.487000
     22 O2          -3.3260    66.0670   162.1550 o          1 N36      -0.522100
@<TRIPOS>BOND
     1     1     2 ar  
     2     1     7 ar  
     3     1    10 1   
     4     2     3 ar  
     5     2    12 1   
     6     3     4 ar  
     7     3    13 1   
     8     4     5 1   
     9     4     6 ar  
    10     5    14 1   
    11     5    22 2   
    12     6     7 ar  
    13     6    15 1   
    14     7    11 1   
    15     8     9 1   
    16     8    11 1   
    17     8    16 1   
    18     8    17 1   
    19     9    18 1   
    20     9    19 1   
    21     9    20 1   
    22    10    21 1   
@<TRIPOS>SUBSTRUCTURE
     1 N36         1 TEMP              0 ****  ****    0 ROOT
