@<TRIPOS>MOLECULE
N37
   63    66     1     0     0
SMALL
abcg2


@<TRIPOS>ATOM
      1 C1          -4.4030    -1.5640     0.4390 ca         1 N37       0.112500
      2 C2          -5.9880    -3.0780     0.5350 ca         1 N37       0.170900
      3 C3          -6.6560    -0.8830     0.7220 ca         1 N37       0.447900
      4 C4          -5.3030    -0.5210     0.5930 ca         1 N37      -0.094600
      5 C5          -3.3990     0.3760     0.4250 cc         1 N37       0.427700
      6 C6          -1.9210    -1.6850     0.1450 c5         1 N37       0.321300
      7 C7          -1.7580    -2.1600    -1.2980 c5         1 N37       0.096300
      8 C8          -1.0490    -0.9520    -1.9190 c5         1 N37       0.089300
      9 C9          -0.1290    -0.5160    -0.7810 c5         1 N37       0.162300
     10 C10          0.2430     0.9500    -0.8140 c3         1 N37      -0.076400
     11 C11          1.0600     1.4350     0.3920 c3         1 N37       0.016400
     12 C12          1.4890     2.9060     0.2470 c3         1 N37      -0.071400
     13 C13          0.3200     3.8750     0.1470 c3         1 N37      -0.054400
     14 C14          0.7520     5.3440     0.1710 c3         1 N37       0.013500
     15 C15         -0.4650     6.2460    -0.1590 c          1 N37       0.692000
     16 C16          2.2360     0.5960     0.5980 c1         1 N37      -0.054100
     17 C17          3.2220    -0.0830     0.7450 cg         1 N37      -0.184000
     18 C18          4.3900    -0.8830     0.9190 ca         1 N37       0.056000
     19 C19          5.0580    -0.9090     2.1460 ca         1 N37      -0.076000
     20 C20          6.1910    -1.6890     2.3040 ca         1 N37      -0.124000
     21 C21          6.6790    -2.4410     1.2440 ca         1 N37      -0.097000
     22 C22          6.0260    -2.4200     0.0130 ca         1 N37      -0.157600
     23 C23          4.8780    -1.6520    -0.1380 ca         1 N37      -0.045000
     24 C24          6.4880    -3.2230    -1.1640 c          1 N37       0.617700
     25 N1          -3.1800    -0.9710     0.3310 na         1 N37      -0.310300
     26 N2          -4.6900    -2.8640     0.4030 nb         1 N37      -0.220000
     27 N3          -6.9620    -2.1850     0.6870 nb         1 N37      -0.313000
     28 N4          -7.6310     0.0130     0.8850 nv         1 N37      -1.066900
     29 N5          -4.6530     0.6850     0.5820 nd         1 N37      -0.551100
     30 N6           1.4310     5.6460     1.4220 n8         1 N37      -1.003200
     31 N7           7.7820    -3.5740    -1.1720 nt         1 N37      -0.607000
     32 O1          -0.8610    -0.8190     0.4100 os         1 N37      -0.441000
     33 O2          -0.9220    -3.2840    -1.2870 oh         1 N37      -0.706000
     34 O3          -0.2970    -1.2560    -3.0590 oh         1 N37      -0.703000
     35 O4          -0.9430     6.1190    -1.3070 o          1 N37      -0.733000
     36 O5          -0.8790     7.0110     0.7340 o          1 N37      -0.733000
     37 O6           5.7110    -3.5330    -2.0570 o          1 N37      -0.605100
     38 H1          -6.3050    -4.1150     0.5170 h5         1 N37       0.038100
     39 H2          -2.5940     1.0910     0.3800 h5         1 N37       0.088800
     40 H3          -1.9200    -2.5240     0.8460 h2         1 N37       0.118700
     41 H4          -2.7250    -2.3770    -1.7690 h1         1 N37       0.072700
     42 H5          -1.7880    -0.1650    -2.1190 h1         1 N37       0.062700
     43 H6           0.7820    -1.1270    -0.7990 h1         1 N37       0.083700
     44 H7           0.8130     1.1270    -1.7310 hc         1 N37       0.065200
     45 H8          -0.6640     1.5550    -0.8880 hc         1 N37       0.065200
     46 H9           0.4330     1.3580     1.2880 hc         1 N37       0.076700
     47 H10          2.1020     3.1750     1.1080 hc         1 N37       0.050200
     48 H11          2.1280     3.0030    -0.6360 hc         1 N37       0.050200
     49 H12         -0.2420     3.7030    -0.7730 hc         1 N37       0.038700
     50 H13         -0.3790     3.6940     0.9750 hc         1 N37       0.038700
     51 H14          1.4820     5.4810    -0.6370 h1         1 N37       0.037700
     52 H15          4.6850    -0.3180     2.9730 ha         1 N37       0.125000
     53 H16          6.6960    -1.7180     3.2600 ha         1 N37       0.111000
     54 H17          7.5560    -3.0550     1.4010 ha         1 N37       0.102000
     55 H18          4.3590    -1.6380    -1.0870 ha         1 N37       0.143000
     56 H19         -7.4380     0.9980     0.8520 hn         1 N37       0.505000
     57 H20         -8.5920    -0.2820     0.9070 hn         1 N37       0.505000
     58 H21          1.8070     6.5850     1.3680 hn         1 N37       0.383500
     59 H22          0.7300     5.6990     2.1520 hn         1 N37       0.383500
     60 H24          8.4480    -3.2140    -0.5120 hn         1 N37       0.310500
     61 H25          8.1480    -4.1010    -1.9480 hn         1 N37       0.310500
     62 H26         -0.4340    -3.2970    -2.1190 ho         1 N37       0.523000
     63 H27         -0.8770    -1.2450    -3.8270 ho         1 N37       0.512000
@<TRIPOS>BOND
     1     1     4 ar  
     2     1    25 1   
     3     1    26 ar  
     4     2    26 ar  
     5     2    27 ar  
     6     2    38 1   
     7     3     4 ar  
     8     3    27 ar  
     9     3    28 1   
    10     4    29 1   
    11     5    25 1   
    12     5    29 2   
    13     5    39 1   
    14     6     7 1   
    15     6    25 1   
    16     6    32 1   
    17     6    40 1   
    18     7     8 1   
    19     7    33 1   
    20     7    41 1   
    21     8     9 1   
    22     8    34 1   
    23     8    42 1   
    24     9    10 1   
    25     9    32 1   
    26     9    43 1   
    27    10    11 1   
    28    10    44 1   
    29    10    45 1   
    30    11    12 1   
    31    11    16 1   
    32    11    46 1   
    33    12    13 1   
    34    12    47 1   
    35    12    48 1   
    36    13    14 1   
    37    13    49 1   
    38    13    50 1   
    39    14    15 1   
    40    14    30 1   
    41    14    51 1   
    42    15    35 1   
    43    15    36 1   
    44    16    17 3   
    45    17    18 1   
    46    18    19 ar  
    47    18    23 ar  
    48    19    20 ar  
    49    19    52 1   
    50    20    21 ar  
    51    20    53 1   
    52    21    22 ar  
    53    21    54 1   
    54    22    23 ar  
    55    22    24 1   
    56    23    55 1   
    57    24    31 1   
    58    24    37 2   
    59    28    56 1   
    60    28    57 1   
    61    30    58 1   
    62    30    59 1   
    63    31    60 1   
    64    31    61 1   
    65    33    62 1   
    66    34    63 1   
@<TRIPOS>SUBSTRUCTURE
     1 N37         1 TEMP              0 ****  ****    0 ROOT
