@<TRIPOS>MOLECULE
N37
   63    66     1     0     0
SMALL
No Charge or Current Charge


@<TRIPOS>ATOM
      1 C1          -4.1350    -1.5340     0.7510 ca         1 N37       0.112500
      2 C2          -4.7200    -2.2630     2.8390 ca         1 N37       0.170900
      3 C3          -6.3440    -1.2310     1.6010 ca         1 N37       0.447900
      4 C4          -5.4100    -1.0650     0.5580 ca         1 N37      -0.094600
      5 C5          -4.3560    -0.6070    -1.2640 cc         1 N37       0.427700
      6 C6          -2.0650    -1.5770    -0.6940 c5         1 N37       0.321300
      7 C7          -1.6920    -1.8780    -2.1990 c5         1 N37       0.096300
      8 C8          -0.9870    -0.5530    -2.6090 c5         1 N37       0.089300
      9 C9          -0.2340    -0.2410    -1.2820 c5         1 N37       0.162300
     10 C10          0.3320     1.1990    -1.1610 c3         1 N37      -0.076400
     11 C11          0.9980     1.5450     0.2040 c3         1 N37       0.016400
     12 C12          1.5110     3.0120     0.2870 c3         1 N37      -0.071400
     13 C13          0.4050     4.1000     0.2140 c3         1 N37      -0.054400
     14 C14          0.9250     5.5550     0.3780 c3         1 N37       0.013500
     15 C15         -0.1830     6.5890    -0.0890 c          1 N37       0.692000
     16 C16          2.0980     0.6130     0.5080 c1         1 N37      -0.054100
     17 C17          2.9840    -0.1860     0.7330 cg         1 N37      -0.184000
     18 C18          4.0250    -1.1390     0.9900 ca         1 N37       0.056000
     19 C19          4.1680    -1.6950     2.2720 ca         1 N37      -0.076000
     20 C20          5.1870    -2.6290     2.5200 ca         1 N37      -0.124000
     21 C21          6.0640    -3.0110     1.4910 ca         1 N37      -0.097000
     22 C22          5.9330    -2.4600     0.1920 ca         1 N37      -0.157600
     23 C23          4.9020    -1.5200    -0.0420 ca         1 N37      -0.045000
     24 C24          6.8580    -2.8460    -0.9420 c          1 N37       0.617700
     25 N1          -3.4600    -1.2470    -0.4010 na         1 N37      -0.310300
     26 N2          -3.7580    -2.1440     1.8920 nb         1 N37      -0.220000
     27 N3          -6.0030    -1.8360     2.7500 nb         1 N37      -0.313000
     28 N4          -7.6330    -0.8060     1.5090 nv         1 N37      -1.066900
     29 N5          -5.5740    -0.4800    -0.7020 nd         1 N37      -0.551100
     30 N6           1.4930     5.7740     1.7590 n8         1 N37      -1.003200
     31 N7           7.8340    -3.7450    -0.6930 nt         1 N37      -0.607000
     32 O1          -1.2490    -0.4530    -0.2840 os         1 N37      -0.441000
     33 O2          -0.7560    -2.9550    -2.3540 oh         1 N37      -0.706000
     34 O3          -0.1200    -0.7640    -3.7400 oh         1 N37      -0.703000
     35 O4          -0.0010     7.2010    -1.1330 o          1 N37      -0.733000
     36 O5          -1.1180     6.8220     0.6670 o          1 N37      -0.733000
     37 O6           6.7560    -2.3800    -2.0650 o          1 N37      -0.605100
     38 H1          -4.4320    -2.7540     3.7670 h5         1 N37       0.038100
     39 H2          -4.0750    -0.2650    -2.2530 h5         1 N37       0.088800
     40 H3          -1.8260    -2.4560    -0.0810 h2         1 N37       0.118700
     41 H4          -2.5860    -2.0630    -2.8120 h1         1 N37       0.072700
     42 H5          -1.7300     0.2290    -2.8250 h1         1 N37       0.062700
     43 H6           0.5770    -0.9660    -1.1200 h1         1 N37       0.083700
     44 H7           1.0640     1.3650    -1.9620 hc         1 N37       0.065200
     45 H8          -0.4880     1.9000    -1.3490 hc         1 N37       0.065200
     46 H9           0.2440     1.4150     0.9900 hc         1 N37       0.076700
     47 H10          2.0530     3.1360     1.2330 hc         1 N37       0.050200
     48 H11          2.2410     3.1890    -0.5130 hc         1 N37       0.050200
     49 H12         -0.0920     4.0340    -0.7610 hc         1 N37       0.038700
     50 H13         -0.3620     3.8980     0.9710 hc         1 N37       0.038700
     51 H14          1.7620     5.6760    -0.3250 h1         1 N37       0.037700
     52 H15          3.4930    -1.4040     3.0740 ha         1 N37       0.125000
     53 H16          5.2970    -3.0580     3.5130 ha         1 N37       0.111000
     54 H17          6.8410    -3.7360     1.7180 ha         1 N37       0.102000
     55 H18          4.7780    -1.0820    -1.0310 ha         1 N37       0.143000
     56 H19         -7.9630    -0.5550     0.5800 hn         1 N37       0.505000
     57 H20         -8.3180    -1.2080     2.1430 hn         1 N37       0.505000
     58 H21          1.8770     6.7260     1.8150 hn         1 N37       0.383500
     59 H22          0.7110     5.8020     2.4260 hn         1 N37       0.383500
     60 H24          7.9350    -4.1410     0.2280 hn         1 N37       0.310500
     61 H25          8.4590    -4.0120    -1.4390 hn         1 N37       0.310500
     62 H26         -0.1440    -2.6060    -3.0540 ho         1 N37       0.523000
     63 H27          0.0900     0.1210    -4.1260 ho         1 N37       0.512000
@<TRIPOS>BOND
     1     1     4 ar  
     2     1    25 1   
     3     1    26 ar  
     4     2    26 ar  
     5     2    27 ar  
     6     2    38 1   
     7     3     4 ar  
     8     3    27 ar  
     9     3    28 1   
    10     4    29 1   
    11     5    25 1   
    12     5    29 2   
    13     5    39 1   
    14     6     7 1   
    15     6    25 1   
    16     6    32 1   
    17     6    40 1   
    18     7     8 1   
    19     7    33 1   
    20     7    41 1   
    21     8     9 1   
    22     8    34 1   
    23     8    42 1   
    24     9    10 1   
    25     9    32 1   
    26     9    43 1   
    27    10    11 1   
    28    10    44 1   
    29    10    45 1   
    30    11    12 1   
    31    11    16 1   
    32    11    46 1   
    33    12    13 1   
    34    12    47 1   
    35    12    48 1   
    36    13    14 1   
    37    13    49 1   
    38    13    50 1   
    39    14    15 1   
    40    14    30 1   
    41    14    51 1   
    42    15    35 1   
    43    15    36 1   
    44    16    17 3   
    45    17    18 1   
    46    18    19 ar  
    47    18    23 ar  
    48    19    20 ar  
    49    19    52 1   
    50    20    21 ar  
    51    20    53 1   
    52    21    22 ar  
    53    21    54 1   
    54    22    23 ar  
    55    22    24 1   
    56    23    55 1   
    57    24    31 1   
    58    24    37 2   
    59    28    56 1   
    60    28    57 1   
    61    30    58 1   
    62    30    59 1   
    63    31    60 1   
    64    31    61 1   
    65    33    62 1   
    66    34    63 1   
@<TRIPOS>SUBSTRUCTURE
     1 N37         1 TEMP              0 ****  ****    0 ROOT
