@<TRIPOS>MOLECULE
N38
   78    80     1     0     0
SMALL
abcg2


@<TRIPOS>ATOM
      1 C01         -8.9050     1.5510    -0.2430 c3         1 N38       0.148900
      2 C03         -7.4170    -0.1820     0.3950 ca         1 N38       0.107100
      3 C04         -7.1970    -1.3400     1.1470 ca         1 N38      -0.136000
      4 C05         -5.9670    -1.9640     1.1360 ca         1 N38      -0.135500
      5 C06         -4.9160    -1.4520     0.3710 ca         1 N38       0.108100
      6 C08         -2.6080    -1.5450    -0.1770 c3         1 N38       0.170600
      7 C09         -1.4080    -2.4120     0.1520 c3         1 N38      -0.047400
      8 C10         -0.1590    -1.7910    -0.4570 c3         1 N38      -0.350400
      9 C13          2.9770    -0.5790    -0.3500 c3         1 N38       0.135500
     10 C14          4.4740    -0.3720    -0.6140 c3         1 N38      -0.064400
     11 C15          5.3990    -1.3350     0.1230 c6         1 N38      -0.057700
     12 C16          5.2020    -1.2860     1.6360 c6         1 N38      -0.074400
     13 C17          6.1870    -2.1960     2.3660 c6         1 N38      -0.072400
     14 C18          7.6310    -1.8720     1.9940 c6         1 N38      -0.075400
     15 C19          7.8280    -1.9460     0.4820 c6         1 N38      -0.072400
     16 C20          6.8520    -1.0240    -0.2450 c6         1 N38      -0.074400
     17 C21          2.1940     0.4130    -1.2090 c          1 N38       0.553100
     18 C23          1.3730     2.7330    -1.3390 c3         1 N38       0.109700
     19 C24          0.6370     3.6150    -0.3330 c3         1 N38      -0.067400
     20 C25         -0.5590     2.9170     0.2970 c5         1 N38      -0.156700
     21 C26         -1.2200     3.7490     1.3840 c          1 N38       0.562000
     22 C28         -2.9550     2.6390     0.2530 c5         1 N38       0.098000
     23 C29         -1.7160     2.5830    -0.6460 c5         1 N38      -0.094400
     24 C31          2.4470     3.4880    -2.1090 c3         1 N38       0.138600
     25 C36         -5.1350    -0.3110    -0.3870 ca         1 N38      -0.135500
     26 C37         -6.3770     0.3230    -0.3720 ca         1 N38      -0.136000
     27 N12          2.6050    -1.9430    -0.6880 n7         1 N38      -0.859300
     28 N22          1.9400     1.5940    -0.6340 ns         1 N38      -0.483900
     29 N27         -2.5470     3.5680     1.2840 ns         1 N38      -0.512900
     30 O02         -8.6510     0.3620     0.4760 os         1 N38      -0.340100
     31 O07         -3.7420    -2.1250     0.4320 os         1 N38      -0.345100
     32 O30         -0.6500     4.4340     2.2180 o          1 N38      -0.549000
     33 O33          1.8540     0.1170    -2.3460 o          1 N38      -0.620100
     34 O34          1.4820    -2.4940     1.4720 o          1 N38      -0.525500
     35 O35          1.2600    -4.0180    -0.5130 o          1 N38      -0.525500
     36 S11          1.3210    -2.6720     0.0360 s6         1 N38       1.190100
     37 H1          -9.9350     1.8280    -0.0340 h1         1 N38       0.039033
     38 H2          -8.2510     2.3680     0.0750 h1         1 N38       0.039033
     39 H3          -8.7930     1.4120    -1.3220 h1         1 N38       0.039033
     40 H4          -8.0000    -1.7470     1.7490 ha         1 N38       0.122000
     41 H5          -5.8110    -2.8560     1.7290 ha         1 N38       0.121000
     42 H6          -2.4510    -0.5280     0.2070 h1         1 N38       0.030700
     43 H7          -2.7420    -1.4760    -1.2630 h1         1 N38       0.030700
     44 H8          -1.3000    -2.4850     1.2350 hc         1 N38       0.075200
     45 H9          -1.5590    -3.4180    -0.2420 hc         1 N38       0.075200
     46 H10         -0.1880    -1.7940    -1.5470 h1         1 N38       0.094700
     47 H11         -0.0310    -0.7600    -0.1170 h1         1 N38       0.094700
     48 H12          2.7680    -0.4170     0.7080 h1         1 N38       0.093700
     49 H13          4.6560    -0.4500    -1.6910 hc         1 N38       0.051200
     50 H14          4.7230     0.6560    -0.3310 hc         1 N38       0.051200
     51 H15          5.1790    -2.3550    -0.2140 hc         1 N38       0.063700
     52 H16          5.3360    -0.2500     1.9740 hc         1 N38       0.039950
     53 H17          4.1780    -1.5770     1.8940 hc         1 N38       0.039950
     54 H18          6.0400    -2.0990     3.4470 hc         1 N38       0.041450
     55 H19          5.9680    -3.2370     2.1120 hc         1 N38       0.041450
     56 H20          7.8790    -0.8640     2.3420 hc         1 N38       0.038700
     57 H21          8.3100    -2.5650     2.4980 hc         1 N38       0.038700
     58 H22          8.8540    -1.6740     0.2190 hc         1 N38       0.041450
     59 H23          7.6730    -2.9760     0.1430 hc         1 N38       0.041450
     60 H24          6.9760    -1.1190    -1.3290 hc         1 N38       0.039950
     61 H25          7.0700     0.0170     0.0160 hc         1 N38       0.039950
     62 H26          0.6700     2.3550    -2.0830 h1         1 N38       0.077700
     63 H27          1.3240     3.9380     0.4540 hc         1 N38       0.071700
     64 H28          0.3160     4.5030    -0.8490 hc         1 N38       0.071700
     65 H29         -0.2130     1.9980     0.7900 hc         1 N38       0.075700
     66 H30         -3.8410     2.9990    -0.2700 h1         1 N38       0.048200
     67 H31         -3.1930     1.6600     0.6810 h1         1 N38       0.048200
     68 H32         -1.7870     3.3380    -1.4320 hc         1 N38       0.056200
     69 H33         -1.6120     1.6150    -1.1360 hc         1 N38       0.056200
     70 H34          2.8880     2.8120    -2.8530 h1         1 N38       0.034700
     71 H35          1.9610     4.3030    -2.6640 h1         1 N38       0.034700
     72 H36         -4.3610     0.1120    -1.0120 ha         1 N38       0.121000
     73 H37         -6.4980     1.2120    -0.9760 ha         1 N38       0.122000
     74 H38          2.6680    -2.1450    -1.6790 hn         1 N38       0.503000
     75 H39          2.3530     1.7870     0.2650 hn         1 N38       0.328500
     76 H40         -3.1850     3.9240     1.9750 hn         1 N38       0.331500
     77 H41          4.0990     4.4140    -1.7050 ho         1 N38       0.451000
     78 O32          3.4140     3.9650    -1.2070 oh         1 N38      -0.665000
@<TRIPOS>BOND
     1     1    30 1   
     2     1    37 1   
     3     1    38 1   
     4     1    39 1   
     5     2     3 ar  
     6     2    26 ar  
     7     2    30 1   
     8     3     4 ar  
     9     3    40 1   
    10     4     5 ar  
    11     4    41 1   
    12     5    25 ar  
    13     5    31 1   
    14     6     7 1   
    15     6    31 1   
    16     6    42 1   
    17     6    43 1   
    18     7     8 1   
    19     7    44 1   
    20     7    45 1   
    21     8    36 1   
    22     8    46 1   
    23     8    47 1   
    24     9    10 1   
    25     9    17 1   
    26     9    27 1   
    27     9    48 1   
    28    10    11 1   
    29    10    49 1   
    30    10    50 1   
    31    11    12 1   
    32    11    16 1   
    33    11    51 1   
    34    12    13 1   
    35    12    52 1   
    36    12    53 1   
    37    13    14 1   
    38    13    54 1   
    39    13    55 1   
    40    14    15 1   
    41    14    56 1   
    42    14    57 1   
    43    15    16 1   
    44    15    58 1   
    45    15    59 1   
    46    16    60 1   
    47    16    61 1   
    48    17    28 1   
    49    17    33 2   
    50    18    19 1   
    51    18    24 1   
    52    18    28 1   
    53    18    62 1   
    54    19    20 1   
    55    19    63 1   
    56    19    64 1   
    57    20    21 1   
    58    20    23 1   
    59    20    65 1   
    60    21    29 1   
    61    21    32 2   
    62    22    23 1   
    63    22    29 1   
    64    22    66 1   
    65    22    67 1   
    66    23    68 1   
    67    23    69 1   
    68    24    70 1   
    69    24    71 1   
    70    24    78 1   
    71    25    26 ar  
    72    25    72 1   
    73    26    73 1   
    74    27    36 1   
    75    27    74 1   
    76    28    75 1   
    77    29    76 1   
    78    34    36 2   
    79    35    36 2   
    80    77    78 1   
@<TRIPOS>SUBSTRUCTURE
     1 N38         1 TEMP              0 ****  ****    0 ROOT
