@<TRIPOS>MOLECULE
N38
   78    80     1     0     0
SMALL
No Charge or Current Charge


@<TRIPOS>ATOM
      1 C01         -9.3030     0.5670    -2.5570 c3         1 N38       0.148900
      2 C03         -7.7110    -0.0750    -0.7820 ca         1 N38       0.107100
      3 C04         -7.4970    -0.3160     0.5850 ca         1 N38      -0.136000
      4 C05         -6.2250    -0.6970     1.0490 ca         1 N38      -0.135500
      5 C06         -5.1560    -0.8420     0.1520 ca         1 N38       0.108100
      6 C08         -2.7570    -1.3220    -0.1570 c3         1 N38       0.170600
      7 C09         -1.5620    -1.6070     0.7730 c3         1 N38      -0.047400
      8 C10         -0.1960    -1.5330     0.0430 c3         1 N38      -0.350400
      9 C13          3.1910    -0.4540    -0.0730 c3         1 N38       0.135500
     10 C14          4.4970    -0.6660    -0.8850 c3         1 N38      -0.064400
     11 C15          5.5730    -1.6060    -0.2480 c6         1 N38      -0.057700
     12 C16          6.0890    -1.0860     1.1270 c6         1 N38      -0.074400
     13 C17          7.1720    -2.0200     1.7220 c6         1 N38      -0.072400
     14 C18          8.3480    -2.2200     0.7370 c6         1 N38      -0.075400
     15 C19          7.8440    -2.7480    -0.6270 c6         1 N38      -0.072400
     16 C20          6.7660    -1.8110    -1.2250 c6         1 N38      -0.074400
     17 C21          2.2960     0.6380    -0.7520 c          1 N38       0.553100
     18 C23          1.2970     2.9350    -0.4420 c3         1 N38       0.109700
     19 C24          0.5240     3.6150     0.7170 c3         1 N38      -0.067400
     20 C25         -0.6170     2.7610     1.3390 c5         1 N38      -0.156700
     21 C26         -1.3430     3.4540     2.5000 c          1 N38       0.562000
     22 C28         -2.9340     2.1030     1.3540 c5         1 N38       0.098000
     23 C29         -1.7790     2.4190     0.3650 c5         1 N38      -0.094400
     24 C31          2.2750     3.9050    -1.1650 c3         1 N38       0.138600
     25 C36         -5.3650    -0.6020    -1.2250 ca         1 N38      -0.135500
     26 C37         -6.6380    -0.2200    -1.6900 ca         1 N38      -0.136000
     27 N12          2.5110    -1.7740     0.1270 n7         1 N38      -0.859300
     28 N22          2.0010     1.7340     0.0300 ns         1 N38      -0.483900
     29 N27         -2.6550     3.0780     2.4050 ns         1 N38      -0.512900
     30 O02         -8.9790     0.2970    -1.1810 os         1 N38      -0.340100
     31 O07         -3.9300    -1.2100     0.6650 os         1 N38      -0.345100
     32 O30         -0.9530     4.3390     3.2440 o          1 N38      -0.549000
     33 O33          1.8780     0.5310    -1.8980 o          1 N38      -0.620100
     34 O34          1.3050    -0.8090     2.1100 o          1 N38      -0.525500
     35 O35          1.1310    -3.2880     1.5800 o          1 N38      -0.525500
     36 S11          1.1860    -1.8950     1.1350 s6         1 N38       1.190100
     37 H1         -10.3600     0.8450    -2.6510 h1         1 N38       0.039033
     38 H2          -8.6970     1.3960    -2.9450 h1         1 N38       0.039033
     39 H3          -9.1280    -0.3190    -3.1800 h1         1 N38       0.039033
     40 H4          -8.3200    -0.2050     1.2870 ha         1 N38       0.122000
     41 H5          -6.0670    -0.8800     2.1090 ha         1 N38       0.121000
     42 H6          -2.5790    -0.3860    -0.7000 h1         1 N38       0.030700
     43 H7          -2.8640    -2.1350    -0.8880 h1         1 N38       0.030700
     44 H8          -1.5710    -0.8830     1.5970 hc         1 N38       0.075200
     45 H9          -1.6960    -2.6020     1.2180 hc         1 N38       0.075200
     46 H10         -0.1580    -2.2640    -0.7720 h1         1 N38       0.094700
     47 H11         -0.0400    -0.5250    -0.3550 h1         1 N38       0.094700
     48 H12          3.4840    -0.0410     0.9010 h1         1 N38       0.093700
     49 H13          4.2240    -1.0500    -1.8760 hc         1 N38       0.051200
     50 H14          4.9470     0.3190    -1.0630 hc         1 N38       0.051200
     51 H15          5.0910    -2.5820    -0.0930 hc         1 N38       0.063700
     52 H16          6.4980    -0.0730     1.0140 hc         1 N38       0.039950
     53 H17          5.2600    -1.0110     1.8440 hc         1 N38       0.039950
     54 H18          7.5450    -1.6020     2.6670 hc         1 N38       0.041450
     55 H19          6.7260    -2.9940     1.9670 hc         1 N38       0.041450
     56 H20          8.8770    -1.2670     0.5930 hc         1 N38       0.038700
     57 H21          9.0770    -2.9220     1.1630 hc         1 N38       0.038700
     58 H22          8.6870    -2.8400    -1.3260 hc         1 N38       0.041450
     59 H23          7.4290    -3.7580    -0.5040 hc         1 N38       0.041450
     60 H24          6.4060    -2.2310    -2.1740 hc         1 N38       0.039950
     61 H25          7.2200    -0.8400    -1.4690 hc         1 N38       0.039950
     62 H26          0.5560     2.6220    -1.1900 h1         1 N38       0.077700
     63 H27          1.2400     3.8940     1.5000 hc         1 N38       0.071700
     64 H28          0.1030     4.5590     0.3480 hc         1 N38       0.071700
     65 H29         -0.2060     1.8240     1.7330 hc         1 N38       0.075700
     66 H30         -3.9210     2.2380     0.8930 h1         1 N38       0.048200
     67 H31         -2.8690     1.0780     1.7410 h1         1 N38       0.048200
     68 H32         -2.0380     3.2810    -0.2630 hc         1 N38       0.056200
     69 H33         -1.5460     1.5850    -0.3050 hc         1 N38       0.056200
     70 H34          2.6920     3.3950    -2.0440 h1         1 N38       0.034700
     71 H35          1.7110     4.7750    -1.5290 h1         1 N38       0.034700
     72 H36         -4.5580    -0.7070    -1.9440 ha         1 N38       0.121000
     73 H37         -6.7710    -0.0420    -2.7530 ha         1 N38       0.122000
     74 H38          2.1100    -2.0670    -0.7630 hn         1 N38       0.503000
     75 H39          2.3810     1.7490     0.9690 hn         1 N38       0.328500
     76 H40         -3.3320     3.4870     3.0380 hn         1 N38       0.331500
     77 H41          3.9180     4.9280    -0.8100 ho         1 N38       0.451000
     78 O32          3.3370     4.3280    -0.2900 oh         1 N38      -0.665000
@<TRIPOS>BOND
     1     1    30 1   
     2     1    37 1   
     3     1    38 1   
     4     1    39 1   
     5     2     3 ar  
     6     2    26 ar  
     7     2    30 1   
     8     3     4 ar  
     9     3    40 1   
    10     4     5 ar  
    11     4    41 1   
    12     5    25 ar  
    13     5    31 1   
    14     6     7 1   
    15     6    31 1   
    16     6    42 1   
    17     6    43 1   
    18     7     8 1   
    19     7    44 1   
    20     7    45 1   
    21     8    36 1   
    22     8    46 1   
    23     8    47 1   
    24     9    10 1   
    25     9    17 1   
    26     9    27 1   
    27     9    48 1   
    28    10    11 1   
    29    10    49 1   
    30    10    50 1   
    31    11    12 1   
    32    11    16 1   
    33    11    51 1   
    34    12    13 1   
    35    12    52 1   
    36    12    53 1   
    37    13    14 1   
    38    13    54 1   
    39    13    55 1   
    40    14    15 1   
    41    14    56 1   
    42    14    57 1   
    43    15    16 1   
    44    15    58 1   
    45    15    59 1   
    46    16    60 1   
    47    16    61 1   
    48    17    28 1   
    49    17    33 2   
    50    18    19 1   
    51    18    24 1   
    52    18    28 1   
    53    18    62 1   
    54    19    20 1   
    55    19    63 1   
    56    19    64 1   
    57    20    21 1   
    58    20    23 1   
    59    20    65 1   
    60    21    29 1   
    61    21    32 2   
    62    22    23 1   
    63    22    29 1   
    64    22    66 1   
    65    22    67 1   
    66    23    68 1   
    67    23    69 1   
    68    24    70 1   
    69    24    71 1   
    70    24    78 1   
    71    25    26 ar  
    72    25    72 1   
    73    26    73 1   
    74    27    36 1   
    75    27    74 1   
    76    28    75 1   
    77    29    76 1   
    78    34    36 2   
    79    35    36 2   
    80    77    78 1   
@<TRIPOS>SUBSTRUCTURE
     1 N38         1 TEMP              0 ****  ****    0 ROOT
