@<TRIPOS>MOLECULE
N39
   78    81     1     0     0
SMALL
No Charge or Current Charge


@<TRIPOS>ATOM
      1 C10         21.6810    29.6130    15.9700 cc         1 N39      -0.084300
      2 C11         20.4940    28.7480    16.4280 c6         1 N39       0.252400
      3 C12         20.8050    27.2880    15.8640 c          1 N39       0.604100
      4 O13         21.1830    26.3660    16.8180 os         1 N39      -0.422100
      5 C14         21.4810    25.0240    16.3910 c3         1 N39       0.153900
      6 C16         20.4370    28.7060    17.9990 c6         1 N39      -0.080200
      7 C17         19.9500    29.9930    18.6450 c2         1 N39      -0.132200
      8 C18         19.2900    30.9590    17.9580 ce         1 N39      -0.175400
      9 C19         18.6880    32.1690    18.6210 c          1 N39       0.618300
     10 C21         18.5090    33.3710    20.6990 c3         1 N39       0.169600
     11 C22         19.0170    33.2240    22.1420 c3         1 N39      -0.098100
     12 C24         19.0090    30.8150    16.4470 c6         1 N39       0.186700
     13 C25         19.6680    31.9540    15.5880 c          1 N39       0.635100
     14 C27         20.9760    34.0650    15.7880 c3         1 N39       0.212000
     15 C28         21.9440    33.8450    14.6010 c3         1 N39      -0.109433
     16 C29         19.7670    34.9620    15.4140 c3         1 N39      -0.109433
     17 C30         21.7400    34.6870    16.9770 c3         1 N39      -0.109433
     18 C35         17.7310    28.0820    14.0500 ca         1 N39      -0.249500
     19 C36         17.8630    26.7700    13.5520 ca         1 N39      -0.001000
     20 C37         17.8220    26.5390    12.1660 ca         1 N39      -0.133500
     21 C38         17.6520    27.6090    11.2690 ca         1 N39      -0.019300
     22 C01         21.3510    29.6660    13.3810 c3         1 N39       0.058900
     23 C03         23.2790    30.6180    14.6360 ca         1 N39      -0.041200
     24 C04         24.0470    31.0860    13.5560 ca         1 N39      -0.125000
     25 C05         25.2420    31.7810    13.8460 ca         1 N39      -0.094000
     26 C06         25.6430    31.9910    15.1880 ca         1 N39      -0.147000
     27 C07         24.8560    31.5040    16.2530 ca         1 N39      -0.059000
     28 C08         23.6800    30.8200    15.9260 ca         1 N39      -0.109800
     29 C09         22.6800    30.1970    16.7500 cd         1 N39      -0.199200
     30 C39         17.6100    27.3540     9.7700 c3         1 N39      -0.056800
     31 C40         17.5140    28.9160    11.7700 ca         1 N39      -0.133500
     32 C41         17.5520    29.1550    13.1550 ca         1 N39      -0.001000
     33 N02         22.0720    29.9280    14.6400 na         1 N39      -0.063700
     34 N32         19.2050    29.3940    15.9430 n3         1 N39      -0.705500
     35 O15         20.7560    27.0020    14.6720 o          1 N39      -0.480000
     36 O20         19.0080    32.2500    19.9520 os         1 N39      -0.446100
     37 O23         17.9870    32.9880    18.0410 o          1 N39      -0.489000
     38 O26         20.4930    32.8020    16.3040 os         1 N39      -0.448100
     39 O31         19.4080    32.0840    14.3970 o          1 N39      -0.500000
     40 O34         18.0410    27.1660    16.5570 o          1 N39      -0.539000
     41 O42         16.6540    29.2530    16.1670 o          1 N39      -0.539000
     42 S33         17.8000    28.4070    15.8160 sy         1 N39       1.137600
     43 H142        21.7620    24.4040    17.2510 h1         1 N39       0.053367
     44 H143        20.6090    24.5640    15.9100 h1         1 N39       0.053367
     45 H141        22.3170    25.0160    15.6790 h1         1 N39       0.053367
     46 H162        19.7570    27.9070    18.3210 hc         1 N39       0.095200
     47 H161        21.4120    28.4220    18.4160 hc         1 N39       0.095200
     48 H171        20.1190    30.0720    19.7210 ha         1 N39       0.202000
     49 H212        17.4110    33.3870    20.6970 h1         1 N39       0.049700
     50 H211        18.8730    34.3170    20.2770 h1         1 N39       0.049700
     51 H222        18.6620    34.0600    22.7560 hc         1 N39       0.047367
     52 H223        18.6520    32.2900    22.5860 hc         1 N39       0.047367
     53 H221        20.1130    33.2200    22.1660 hc         1 N39       0.047367
     54 H241        17.9630    31.1200    16.3120 h1         1 N39       0.137700
     55 H283        22.8180    33.2740    14.9220 hc         1 N39       0.050256
     56 H281        21.4750    33.3250    13.7600 hc         1 N39       0.050256
     57 H282        22.3060    34.8100    14.2270 hc         1 N39       0.050256
     58 H292        19.0200    34.9670    16.2160 hc         1 N39       0.050256
     59 H293        20.0950    35.9960    15.2530 hc         1 N39       0.050256
     60 H291        19.2820    34.6300    14.4890 hc         1 N39       0.050256
     61 H301        21.0740    34.8310    17.8360 hc         1 N39       0.050256
     62 H302        22.5660    34.0370    17.2920 hc         1 N39       0.050256
     63 H303        22.1600    35.6630    16.7040 hc         1 N39       0.050256
     64 H361        18.0030    25.9300    14.2300 ha         1 N39       0.138500
     65 H371        17.9270    25.5240    11.7910 ha         1 N39       0.116500
     66 H013        21.3240    30.5800    12.7750 h1         1 N39       0.060033
     67 H011        21.8630    28.8740    12.8220 h1         1 N39       0.060033
     68 H012        20.3220    29.3550    13.5850 h1         1 N39       0.060033
     69 H041        23.7360    30.9260    12.5270 ha         1 N39       0.117000
     70 H051        25.8570    32.1590    13.0320 ha         1 N39       0.109000
     71 H061        26.5650    32.5280    15.4000 ha         1 N39       0.110000
     72 H071        25.1520    31.6520    17.2890 ha         1 N39       0.113000
     73 H091        22.7290    30.1710    17.8340 ha         1 N39       0.206000
     74 H392        16.5830    27.1680     9.4350 hc         1 N39       0.048033
     75 H391        17.9950    28.2130     9.2080 hc         1 N39       0.048033
     76 H393        18.2160    26.4830     9.4950 hc         1 N39       0.048033
     77 H401        17.3780    29.7510    11.0870 ha         1 N39       0.116500
     78 H411        17.4500    30.1720    13.5280 ha         1 N39       0.138500
@<TRIPOS>BOND
     1     1     2 1   
     2     1    29 2   
     3     1    33 1   
     4     2     3 1   
     5     2     6 1   
     6     2    34 1   
     7     3     4 1   
     8     3    35 2   
     9     4     5 1   
    10     5    43 1   
    11     5    44 1   
    12     5    45 1   
    13     6     7 1   
    14     6    46 1   
    15     6    47 1   
    16     7     8 2   
    17     7    48 1   
    18     8     9 1   
    19     8    12 1   
    20     9    36 1   
    21     9    37 2   
    22    10    11 1   
    23    10    36 1   
    24    10    49 1   
    25    10    50 1   
    26    11    51 1   
    27    11    52 1   
    28    11    53 1   
    29    12    13 1   
    30    12    34 1   
    31    12    54 1   
    32    13    38 1   
    33    13    39 2   
    34    14    15 1   
    35    14    16 1   
    36    14    17 1   
    37    14    38 1   
    38    15    55 1   
    39    15    56 1   
    40    15    57 1   
    41    16    58 1   
    42    16    59 1   
    43    16    60 1   
    44    17    61 1   
    45    17    62 1   
    46    17    63 1   
    47    18    19 ar  
    48    18    32 ar  
    49    18    42 1   
    50    19    20 ar  
    51    19    64 1   
    52    20    21 ar  
    53    20    65 1   
    54    21    30 1   
    55    21    31 ar  
    56    22    33 1   
    57    22    66 1   
    58    22    67 1   
    59    22    68 1   
    60    23    24 ar  
    61    23    28 ar  
    62    23    33 1   
    63    24    25 ar  
    64    24    69 1   
    65    25    26 ar  
    66    25    70 1   
    67    26    27 ar  
    68    26    71 1   
    69    27    28 ar  
    70    27    72 1   
    71    28    29 1   
    72    29    73 1   
    73    30    74 1   
    74    30    75 1   
    75    30    76 1   
    76    31    32 ar  
    77    31    77 1   
    78    32    78 1   
    79    34    42 1   
    80    40    42 2   
    81    41    42 2   
@<TRIPOS>SUBSTRUCTURE
     1 N39         1 TEMP              0 ****  ****    0 ROOT
