@<TRIPOS>MOLECULE
N39
   78    81     1     0     0
SMALL
abcg2


@<TRIPOS>ATOM
      1 C10         21.7500    29.6310    16.0300 cc         1 N39      -0.084300
      2 C11         20.5360    28.8020    16.3990 c6         1 N39       0.252400
      3 C12         20.7930    27.4190    15.7770 c          1 N39       0.604100
      4 O13         21.5810    26.7090    16.5550 os         1 N39      -0.422100
      5 C14         21.9970    25.4250    16.0820 c3         1 N39       0.153900
      6 C16         20.4120    28.6950    17.9270 c6         1 N39      -0.080200
      7 C17         19.8610    29.9310    18.5390 c2         1 N39      -0.132200
      8 C18         19.2840    30.9030    17.8370 ce         1 N39      -0.175400
      9 C19         18.6680    32.0890    18.4720 c          1 N39       0.618300
     10 C21         18.4790    33.3750    20.4460 c3         1 N39       0.169600
     11 C22         19.0370    33.3450    21.8480 c3         1 N39      -0.098100
     12 C24         19.1000    30.7970    16.3520 c6         1 N39       0.186700
     13 C25         19.8500    31.8580    15.5330 c          1 N39       0.635100
     14 C27         20.9720    34.0110    15.8990 c3         1 N39       0.212000
     15 C28         22.0220    33.9200    14.8030 c3         1 N39      -0.109433
     16 C29         19.7920    34.8750    15.4770 c3         1 N39      -0.109433
     17 C30         21.5980    34.5540    17.1760 c3         1 N39      -0.109433
     18 C35         17.7610    28.1140    14.0030 ca         1 N39      -0.249500
     19 C36         17.4910    26.8100    13.6200 ca         1 N39      -0.001000
     20 C37         17.2750    26.5360    12.2800 ca         1 N39      -0.133500
     21 C38         17.3260    27.5430    11.3170 ca         1 N39      -0.019300
     22 C01         21.5340    29.5180    13.4740 c3         1 N39       0.058900
     23 C03         23.3380    30.5640    14.7760 ca         1 N39      -0.041200
     24 C04         24.1400    31.0300    13.7310 ca         1 N39      -0.125000
     25 C05         25.2790    31.7330    14.0690 ca         1 N39      -0.094000
     26 C06         25.6250    31.9720    15.4110 ca         1 N39      -0.147000
     27 C07         24.8370    31.5000    16.4400 ca         1 N39      -0.059000
     28 C08         23.6790    30.7800    16.1250 ca         1 N39      -0.109800
     29 C09         22.6580    30.1720    16.9000 cd         1 N39      -0.199200
     30 C39         17.0720    27.2330     9.8730 c3         1 N39      -0.056800
     31 C40         17.5990    28.8450    11.7340 ca         1 N39      -0.133500
     32 C41         17.8050    29.1410    13.0710 ca         1 N39      -0.001000
     33 N02         22.1590    29.8740    14.7300 na         1 N39      -0.063700
     34 N32         19.3200    29.4440    15.8450 n3         1 N39      -0.705500
     35 O15         20.3980    27.0610    14.7020 o          1 N39      -0.480000
     36 O20         19.0510    32.2740    19.7230 os         1 N39      -0.446100
     37 O23         17.8830    32.8050    17.8940 o          1 N39      -0.489000
     38 O26         20.4940    32.6920    16.3130 os         1 N39      -0.448100
     39 O31         19.7410    31.9310    14.3370 o          1 N39      -0.500000
     40 O34         18.1000    27.2690    16.4750 o          1 N39      -0.539000
     41 O42         16.7900    29.3560    16.0550 o          1 N39      -0.539000
     42 S33         17.9160    28.4990    15.7190 sy         1 N39       1.137600
     43 H142        22.6200    25.0100    16.8670 h1         1 N39       0.053367
     44 H143        21.1420    24.7730    15.9100 h1         1 N39       0.053367
     45 H141        22.5780    25.5150    15.1640 h1         1 N39       0.053367
     46 H162        19.7580    27.8620    18.1950 hc         1 N39       0.095200
     47 H161        21.3720    28.4580    18.3830 hc         1 N39       0.095200
     48 H171        19.9170    29.9910    19.6190 ha         1 N39       0.202000
     49 H212        17.3910    33.2850    20.4560 h1         1 N39       0.049700
     50 H211        18.7330    34.3110    19.9430 h1         1 N39       0.049700
     51 H222        18.6180    34.1740    22.4160 hc         1 N39       0.047367
     52 H223        18.7740    32.4210    22.3630 hc         1 N39       0.047367
     53 H221        20.1210    33.4510    21.8520 hc         1 N39       0.047367
     54 H241        18.0580    31.0540    16.1440 h1         1 N39       0.137700
     55 H283        22.8270    33.2410    15.0810 hc         1 N39       0.050256
     56 H281        21.6070    33.6000    13.8500 hc         1 N39       0.050256
     57 H282        22.4590    34.9100    14.6610 hc         1 N39       0.050256
     58 H292        19.0320    34.9170    16.2580 hc         1 N39       0.050256
     59 H293        20.1460    35.8920    15.3020 hc         1 N39       0.050256
     60 H291        19.3290    34.5270    14.5560 hc         1 N39       0.050256
     61 H301        20.8710    34.5940    17.9890 hc         1 N39       0.050256
     62 H302        22.4420    33.9400    17.4960 hc         1 N39       0.050256
     63 H303        21.9660    35.5650    17.0050 hc         1 N39       0.050256
     64 H361        17.4570    26.0090    14.3450 ha         1 N39       0.138500
     65 H371        17.0710    25.5160    11.9770 ha         1 N39       0.116500
     66 H013        21.6510    30.3440    12.7760 h1         1 N39       0.060033
     67 H011        21.9940    28.6290    13.0420 h1         1 N39       0.060033
     68 H012        20.4750    29.3430    13.6010 h1         1 N39       0.060033
     69 H041        23.8900    30.8540    12.6930 ha         1 N39       0.117000
     70 H051        25.9210    32.1080    13.2820 ha         1 N39       0.109000
     71 H061        26.5240    32.5320    15.6330 ha         1 N39       0.110000
     72 H071        25.1070    31.6830    17.4730 ha         1 N39       0.113000
     73 H091        22.6100    30.1540    17.9760 ha         1 N39       0.206000
     74 H392        15.9990    27.2130     9.6680 hc         1 N39       0.048033
     75 H391        17.5160    27.9810     9.2180 hc         1 N39       0.048033
     76 H393        17.4700    26.2570     9.6000 hc         1 N39       0.048033
     77 H401        17.6510    29.6420    11.0040 ha         1 N39       0.116500
     78 H411        18.0300    30.1580    13.3680 ha         1 N39       0.138500
@<TRIPOS>BOND
     1     1     2 1   
     2     1    29 2   
     3     1    33 1   
     4     2     3 1   
     5     2     6 1   
     6     2    34 1   
     7     3     4 1   
     8     3    35 2   
     9     4     5 1   
    10     5    43 1   
    11     5    44 1   
    12     5    45 1   
    13     6     7 1   
    14     6    46 1   
    15     6    47 1   
    16     7     8 2   
    17     7    48 1   
    18     8     9 1   
    19     8    12 1   
    20     9    36 1   
    21     9    37 2   
    22    10    11 1   
    23    10    36 1   
    24    10    49 1   
    25    10    50 1   
    26    11    51 1   
    27    11    52 1   
    28    11    53 1   
    29    12    13 1   
    30    12    34 1   
    31    12    54 1   
    32    13    38 1   
    33    13    39 2   
    34    14    15 1   
    35    14    16 1   
    36    14    17 1   
    37    14    38 1   
    38    15    55 1   
    39    15    56 1   
    40    15    57 1   
    41    16    58 1   
    42    16    59 1   
    43    16    60 1   
    44    17    61 1   
    45    17    62 1   
    46    17    63 1   
    47    18    19 ar  
    48    18    32 ar  
    49    18    42 1   
    50    19    20 ar  
    51    19    64 1   
    52    20    21 ar  
    53    20    65 1   
    54    21    30 1   
    55    21    31 ar  
    56    22    33 1   
    57    22    66 1   
    58    22    67 1   
    59    22    68 1   
    60    23    24 ar  
    61    23    28 ar  
    62    23    33 1   
    63    24    25 ar  
    64    24    69 1   
    65    25    26 ar  
    66    25    70 1   
    67    26    27 ar  
    68    26    71 1   
    69    27    28 ar  
    70    27    72 1   
    71    28    29 1   
    72    29    73 1   
    73    30    74 1   
    74    30    75 1   
    75    30    76 1   
    76    31    32 ar  
    77    31    77 1   
    78    32    78 1   
    79    34    42 1   
    80    40    42 2   
    81    41    42 2   
@<TRIPOS>SUBSTRUCTURE
     1 N39         1 TEMP              0 ****  ****    0 ROOT
