@<TRIPOS>MOLECULE
N3A
   58    61     1     0     0
SMALL
No Charge or Current Charge


@<TRIPOS>ATOM
      1 C1          -0.2570    72.3870    68.1970 c6         1 N3A      -0.025500
      2 O19         -3.0350    68.5120    72.1860 o          1 N3A      -0.509100
      3 O20         -5.7380    67.3830    68.8710 o          1 N3A      -0.571100
      4 N28         -5.5720    68.8770    67.1190 ns         1 N3A      -0.151000
      5 C11         -5.2620    68.4070    68.3920 c          1 N3A       0.594100
      6 C2          -4.3230    69.3190    69.1960 c3         1 N3A      -0.160400
      7 C3          -2.9020    68.7000    69.3180 c3         1 N3A      -0.060400
      8 C4          -1.8700    69.4510    70.2490 c6         1 N3A      -0.132000
      9 C5          -2.3530    69.4220    71.7320 c          1 N3A       0.561300
     10 C6          -1.8400    70.4990    72.6280 ce         1 N3A      -0.304200
     11 C7          -1.1490    71.5870    72.2110 c2         1 N3A      -0.131200
     12 C8          -0.8010    71.8660    70.7520 c6         1 N3A      -0.017800
     13 C9          -1.6550    70.9500    69.7920 c6         1 N3A      -0.047700
     14 C10         -1.1890    71.1470    68.3040 c6         1 N3A      -0.062400
     15 C14         -1.1760    73.3440    70.3760 c6         1 N3A      -0.034200
     16 C15         -0.9360    73.5740    68.8810 c2         1 N3A      -0.108400
     17 C17         -1.2990    74.6950    68.2410 c2         1 N3A      -0.326000
     18 C18         -0.5600    68.5890    70.2380 c3         1 N3A      -0.083100
     19 C28          0.7420    71.6990    70.4590 c6         1 N3A       0.178300
     20 C29          1.0540    72.0760    68.9720 c6         1 N3A      -0.101400
     21 O32         -5.2360    64.4350    64.4900 o          1 N3A      -0.699500
     22 O33         -6.8710    64.4900    63.0930 o          1 N3A      -0.699500
     23 C22         -6.6120    66.3430    64.5250 ca         1 N3A      -0.285600
     24 C23         -5.9050    66.9720    65.5760 ca         1 N3A       0.250100
     25 C24         -6.2940    68.2410    66.0610 ca         1 N3A      -0.257000
     26 C25         -7.3870    68.8940    65.4640 ca         1 N3A       0.174100
     27 C26         -8.0920    68.2830    64.4250 ca         1 N3A      -0.233000
     28 C27         -7.7160    67.0160    63.9580 ca         1 N3A       0.001000
     29 O34          1.5410    72.4950    71.3510 oh         1 N3A      -0.672000
     30 H1          -0.0350    72.6090    67.1440 hc         1 N3A       0.060700
     31 HN28        -5.1500    69.7640    66.8750 hn         1 N3A       0.131000
     32 H2          -4.2460    70.2890    68.6930 hc         1 N3A       0.053200
     33 H2A         -4.7430    69.4510    70.2000 hc         1 N3A       0.053200
     34 H3          -3.0210    67.6650    69.6670 hc         1 N3A       0.071200
     35 H3A         -2.4880    68.6080    68.3050 hc         1 N3A       0.071200
     36 H6          -2.0810    70.3720    73.6820 ha         1 N3A       0.194000
     37 H7          -0.8090    72.3350    72.9320 ha         1 N3A       0.185000
     38 H9          -2.6610    71.3900    69.8400 hc         1 N3A       0.056700
     39 H10         -2.0670    71.2870    67.6580 hc         1 N3A       0.052200
     40 H10A        -0.6670    70.2650    67.9140 hc         1 N3A       0.052200
     41 H14         -2.2270    73.5520    70.6200 hc         1 N3A       0.059200
     42 H14A        -0.5810    74.0580    70.9610 hc         1 N3A       0.059200
     43 H17         -1.1220    74.8300    67.1740 ha         1 N3A       0.163500
     44 H17A        -1.7870    75.5180    68.7640 ha         1 N3A       0.163500
     45 H18          0.0020    68.6770    69.3020 hc         1 N3A       0.043033
     46 H18A         0.1100    68.8520    71.0640 hc         1 N3A       0.043033
     47 H18B        -0.7840    67.5240    70.3740 hc         1 N3A       0.043033
     48 H28          1.0240    70.6500    70.5960 h1         1 N3A       0.044700
     49 H29          1.5860    71.2470    68.4850 hc         1 N3A       0.047700
     50 H29A         1.7230    72.9460    68.9180 hc         1 N3A       0.047700
     51 HO30        -7.2450    70.3500    66.6810 ho         1 N3A       0.458000
     52 HO31        -4.7510    65.5020    65.5870 ho         1 N3A       0.553000
     53 H26         -8.9410    68.7920    63.9750 ha         1 N3A       0.108000
     54 H27         -8.2860    66.5650    63.1470 ha         1 N3A       0.125000
     55 HO34         2.4780    72.3240    71.1140 ho         1 N3A       0.439000
     56 C21         -6.2110    64.9840    63.9930 c          1 N3A       0.722600
     57 O31         -4.8050    66.3650    66.0930 oh         1 N3A      -0.631100
     58 O30         -7.7880    70.1180    65.9010 oh         1 N3A      -0.554100
@<TRIPOS>BOND
     1     1    14 1   
     2     1    16 1   
     3     1    20 1   
     4     1    30 1   
     5     2     9 2   
     6     3     5 2   
     7     4     5 1   
     8     4    25 1   
     9     4    31 1   
    10     5     6 1   
    11     6     7 1   
    12     6    32 1   
    13     6    33 1   
    14     7     8 1   
    15     7    34 1   
    16     7    35 1   
    17     8     9 1   
    18     8    13 1   
    19     8    18 1   
    20     9    10 1   
    21    10    11 2   
    22    10    36 1   
    23    11    12 1   
    24    11    37 1   
    25    12    13 1   
    26    12    15 1   
    27    12    19 1   
    28    13    14 1   
    29    13    38 1   
    30    14    39 1   
    31    14    40 1   
    32    15    16 1   
    33    15    41 1   
    34    15    42 1   
    35    16    17 2   
    36    17    43 1   
    37    17    44 1   
    38    18    45 1   
    39    18    46 1   
    40    18    47 1   
    41    19    20 1   
    42    19    29 1   
    43    19    48 1   
    44    20    49 1   
    45    20    50 1   
    46    21    56 1   
    47    22    56 1   
    48    23    24 ar  
    49    23    28 ar  
    50    23    56 1   
    51    24    25 ar  
    52    24    57 1   
    53    25    26 ar  
    54    26    27 ar  
    55    26    58 1   
    56    27    28 ar  
    57    27    53 1   
    58    28    54 1   
    59    29    55 1   
    60    51    58 1   
    61    52    57 1   
@<TRIPOS>SUBSTRUCTURE
     1 N3A         1 TEMP              0 ****  ****    0 ROOT
