@<TRIPOS>MOLECULE
N3A
   58    61     1     0     0
SMALL
abcg2


@<TRIPOS>ATOM
      1 C1          -0.2960    72.3690    68.2240 c6         1 N3A      -0.025500
      2 O19         -3.2600    68.5880    71.9910 o          1 N3A      -0.509100
      3 O20         -6.1040    68.0360    68.8010 o          1 N3A      -0.571100
      4 N28         -5.4130    69.1540    66.9480 ns         1 N3A      -0.151000
      5 C11         -5.3780    68.8780    68.2840 c          1 N3A       0.594100
      6 C2          -4.3620    69.6690    69.0750 c3         1 N3A      -0.160400
      7 C3          -3.0590    68.8640    69.1990 c3         1 N3A      -0.060400
      8 C4          -1.9930    69.4660    70.1340 c6         1 N3A      -0.132000
      9 C5          -2.4700    69.4320    71.5890 c          1 N3A       0.561300
     10 C6          -1.8740    70.3980    72.5190 ce         1 N3A      -0.304200
     11 C7          -1.0870    71.4060    72.1290 c2         1 N3A      -0.131200
     12 C8          -0.7840    71.7330    70.7060 c6         1 N3A      -0.017800
     13 C9          -1.6930    70.9330    69.7400 c6         1 N3A      -0.047700
     14 C10         -1.2070    71.1280    68.2880 c6         1 N3A      -0.062400
     15 C14         -1.0890    73.2300    70.4410 c6         1 N3A      -0.034200
     16 C15         -0.9710    73.5010    68.9540 c2         1 N3A      -0.108400
     17 C17         -1.4300    74.6000    68.3640 c2         1 N3A      -0.326000
     18 C18         -0.7650    68.5260    70.0950 c3         1 N3A      -0.083100
     19 C28          0.7160    71.5140    70.3800 c6         1 N3A       0.178300
     20 C29          1.0130    72.0260    68.9530 c6         1 N3A      -0.101400
     21 O32         -4.7690    64.6400    64.7130 o          1 N3A      -0.699500
     22 O33         -6.5960    64.3080    63.4630 o          1 N3A      -0.699500
     23 C22         -6.4180    66.3380    64.6940 ca         1 N3A      -0.285600
     24 C23         -5.6640    67.1180    65.5980 ca         1 N3A       0.250100
     25 C24         -6.1490    68.3620    66.0230 ca         1 N3A      -0.257000
     26 C25         -7.3750    68.8310    65.5480 ca         1 N3A       0.174100
     27 C26         -8.1240    68.0730    64.6470 ca         1 N3A      -0.233000
     28 C27         -7.6360    66.8440    64.2400 ca         1 N3A       0.001000
     29 O34          1.4860    72.2050    71.3740 oh         1 N3A      -0.672000
     30 H1          -0.0970    72.6430    67.1880 hc         1 N3A       0.060700
     31 HN28        -4.7120    69.7840    66.5860 hn         1 N3A       0.131000
     32 H2          -4.1820    70.6290    68.5900 hc         1 N3A       0.053200
     33 H2A         -4.7860    69.8570    70.0610 hc         1 N3A       0.053200
     34 H3          -3.2980    67.8660    69.5650 hc         1 N3A       0.071200
     35 H3A         -2.6170    68.7420    68.2080 hc         1 N3A       0.071200
     36 H6          -2.0980    70.2390    73.5680 ha         1 N3A       0.194000
     37 H7          -0.6550    72.0610    72.8770 ha         1 N3A       0.185000
     38 H9          -2.6550    71.4440    69.8230 hc         1 N3A       0.056700
     39 H10         -2.0610    71.2490    67.6210 hc         1 N3A       0.052200
     40 H10A        -0.6420    70.2640    67.9340 hc         1 N3A       0.052200
     41 H14         -2.0900    73.4730    70.8010 hc         1 N3A       0.059200
     42 H14A        -0.3810    73.8450    71.0010 hc         1 N3A       0.059200
     43 H17         -1.3130    74.7540    67.2970 ha         1 N3A       0.163500
     44 H17A        -1.9350    75.3780    68.9250 ha         1 N3A       0.163500
     45 H18         -0.2540    68.6000    69.1360 hc         1 N3A       0.043033
     46 H18A        -0.0520    68.7500    70.8850 hc         1 N3A       0.043033
     47 H18B        -1.0960    67.4950    70.2250 hc         1 N3A       0.043033
     48 H28          0.9460    70.4530    70.4500 h1         1 N3A       0.044700
     49 H29          1.5620    71.2700    68.3880 hc         1 N3A       0.047700
     50 H29A         1.6450    72.9130    69.0260 hc         1 N3A       0.047700
     51 HO30        -7.2410    70.4230    66.5850 ho         1 N3A       0.458000
     52 HO31        -4.3830    65.7650    65.5950 ho         1 N3A       0.553000
     53 H26         -9.0710    68.4550    64.2890 ha         1 N3A       0.108000
     54 H27         -8.2070    66.2410    63.5460 ha         1 N3A       0.125000
     55 HO34         2.4200    72.0720    71.1690 ho         1 N3A       0.439000
     56 C21         -5.9110    64.9960    64.2430 c          1 N3A       0.722600
     57 O31         -4.4870    66.6840    66.0640 oh         1 N3A      -0.631100
     58 O30         -7.8650    70.0300    65.9540 oh         1 N3A      -0.554100
@<TRIPOS>BOND
     1     1    14 1   
     2     1    16 1   
     3     1    20 1   
     4     1    30 1   
     5     2     9 2   
     6     3     5 2   
     7     4     5 1   
     8     4    25 1   
     9     4    31 1   
    10     5     6 1   
    11     6     7 1   
    12     6    32 1   
    13     6    33 1   
    14     7     8 1   
    15     7    34 1   
    16     7    35 1   
    17     8     9 1   
    18     8    13 1   
    19     8    18 1   
    20     9    10 1   
    21    10    11 2   
    22    10    36 1   
    23    11    12 1   
    24    11    37 1   
    25    12    13 1   
    26    12    15 1   
    27    12    19 1   
    28    13    14 1   
    29    13    38 1   
    30    14    39 1   
    31    14    40 1   
    32    15    16 1   
    33    15    41 1   
    34    15    42 1   
    35    16    17 2   
    36    17    43 1   
    37    17    44 1   
    38    18    45 1   
    39    18    46 1   
    40    18    47 1   
    41    19    20 1   
    42    19    29 1   
    43    19    48 1   
    44    20    49 1   
    45    20    50 1   
    46    21    56 1   
    47    22    56 1   
    48    23    24 ar  
    49    23    28 ar  
    50    23    56 1   
    51    24    25 ar  
    52    24    57 1   
    53    25    26 ar  
    54    26    27 ar  
    55    26    58 1   
    56    27    28 ar  
    57    27    53 1   
    58    28    54 1   
    59    29    55 1   
    60    51    58 1   
    61    52    57 1   
@<TRIPOS>SUBSTRUCTURE
     1 N3A         1 TEMP              0 ****  ****    0 ROOT
