@<TRIPOS>MOLECULE
N3B
   60    63     1     0     0
SMALL
bcc


@<TRIPOS>ATOM
      1 C1          -8.6260     3.0280     0.8900 ca         1 N3B      -0.171000
      2 C2          -9.7580     2.3570     0.4710 ca         1 N3B       0.145900
      3 C3          -9.6880     1.1750    -0.2400 ca         1 N3B      -0.171000
      4 C4          -8.4390     0.6510    -0.5340 ca         1 N3B      -0.087000
      5 C5          -7.2690     1.2970    -0.1280 cp         1 N3B      -0.064000
      6 C6          -7.3860     2.4910     0.5850 ca         1 N3B      -0.087000
      7 F7         -10.9630     2.8670     0.7660 f          1 N3B      -0.139900
      8 C8          -5.9440     0.7280    -0.4350 cp         1 N3B       0.003000
      9 C9          -4.8580     1.5570    -0.7280 ca         1 N3B      -0.131000
     10 C10         -3.6130     1.0250    -1.0060 ca         1 N3B      -0.079500
     11 C11         -3.4140    -0.3540    -0.9840 ca         1 N3B      -0.161600
     12 C12         -4.4950    -1.1890    -0.7060 ca         1 N3B      -0.079500
     13 C13         -5.7410    -0.6520    -0.4380 ca         1 N3B      -0.131000
     14 C14         -2.0580    -0.8700    -1.2930 c          1 N3B       0.718700
     15 O15         -1.2350    -0.2340    -1.9150 o          1 N3B      -0.563100
     16 N16         -1.7770    -2.1260    -0.8140 ns         1 N3B      -0.648300
     17 S17         -0.3310    -2.9290    -1.1130 sy         1 N3B       1.339900
     18 C18          0.9050    -1.9590    -0.3410 ca         1 N3B      -0.388500
     19 C19          1.1330    -2.1190     1.0050 ca         1 N3B       0.090000
     20 C20          2.1080    -1.3620     1.6450 ca         1 N3B      -0.317200
     21 C21          2.8920    -0.4040     0.9320 ca         1 N3B       0.322600
     22 C22          2.6260    -0.2970    -0.4590 ca         1 N3B      -0.265000
     23 C23          1.6650    -1.0440    -1.0790 ca         1 N3B       0.080000
     24 O24         -0.0970    -2.9390    -2.5410 o          1 N3B      -0.596800
     25 O25         -0.4890    -4.1740    -0.3840 o          1 N3B      -0.596800
     26 N26          2.2820    -1.6010     3.0500 no         1 N3B       0.331200
     27 O27          1.5730    -2.4140     3.5970 o          1 N3B      -0.231500
     28 O28          3.1410    -0.9770     3.6480 o          1 N3B      -0.231500
     29 N29          3.8260     0.3670     1.4860 nu         1 N3B      -0.738600
     30 C30          4.6100     1.3470     0.7650 c3         1 N3B       0.220800
     31 C31          5.4730     2.1180     1.7510 c3         1 N3B      -0.036300
     32 S32          6.4960     3.3640     0.9400 ss         1 N3B      -0.229000
     33 C33          7.6990     2.4240     0.0480 ca         1 N3B       0.020900
     34 C34          8.0590     1.1160     0.3610 ca         1 N3B      -0.121000
     35 C35          9.0490     0.4750    -0.3720 ca         1 N3B      -0.116500
     36 C36          9.7000     1.1300    -1.4070 ca         1 N3B      -0.123000
     37 C37          9.3470     2.4380    -1.7130 ca         1 N3B      -0.116500
     38 C38          8.3480     3.0810    -0.9980 ca         1 N3B      -0.121000
     39 HA1         -8.7080     3.9480     1.4540 ha         1 N3B       0.153000
     40 HA2        -10.5890     0.6710    -0.5620 ha         1 N3B       0.153000
     41 HB1         -8.3820    -0.2650    -1.1080 ha         1 N3B       0.138500
     42 HB2         -6.4990     3.0060     0.9310 ha         1 N3B       0.138500
     43 HC1         -4.9890     2.6310    -0.7590 ha         1 N3B       0.140500
     44 HD1         -2.7900     1.6880    -1.2360 ha         1 N3B       0.145000
     45 HD2         -4.3900    -2.2660    -0.7100 ha         1 N3B       0.145000
     46 HC2         -6.5600    -1.3230    -0.2100 ha         1 N3B       0.140500
     47 H47         -2.3790    -2.5760    -0.1360 hn         1 N3B       0.349500
     48 HG           0.5620    -2.8340     1.5800 ha         1 N3B       0.181000
     49 HF           3.2020     0.3930    -1.0580 ha         1 N3B       0.149000
     50 HE           1.5110    -0.9240    -2.1420 ha         1 N3B       0.173000
     51 H51          4.0080     0.2360     2.4680 hn         1 N3B       0.481800
     52 HH1          5.2370     0.8560     0.0150 h1         1 N3B       0.065700
     53 HH2          3.9580     2.0480     0.2390 h1         1 N3B       0.065700
     54 HI1          4.8450     2.6860     2.4400 h1         1 N3B       0.086200
     55 HI2          6.0900     1.4530     2.3560 h1         1 N3B       0.086200
     56 HJ1          7.5820     0.5810     1.1720 ha         1 N3B       0.137000
     57 HK1          9.3120    -0.5450    -0.1230 ha         1 N3B       0.135500
     58 HL          10.4730     0.6260    -1.9720 ha         1 N3B       0.137000
     59 HK2          9.8430     2.9630    -2.5190 ha         1 N3B       0.135500
     60 HJ2          8.0700     4.0960    -1.2560 ha         1 N3B       0.137000
@<TRIPOS>BOND
     1     1     2 ar  
     2     1     6 ar  
     3     1    39 1   
     4     2     3 ar  
     5     2     7 1   
     6     3     4 ar  
     7     3    40 1   
     8     4     5 ar  
     9     4    41 1   
    10     5     6 ar  
    11     5     8 1   
    12     6    42 1   
    13     8     9 ar  
    14     8    13 ar  
    15     9    10 ar  
    16     9    43 1   
    17    10    11 ar  
    18    10    44 1   
    19    11    12 ar  
    20    11    14 1   
    21    12    13 ar  
    22    12    45 1   
    23    13    46 1   
    24    14    15 2   
    25    14    16 1   
    26    16    17 1   
    27    16    47 1   
    28    17    18 1   
    29    17    24 2   
    30    17    25 2   
    31    18    19 ar  
    32    18    23 ar  
    33    19    20 ar  
    34    19    48 1   
    35    20    21 ar  
    36    20    26 1   
    37    21    22 ar  
    38    21    29 1   
    39    22    23 ar  
    40    22    49 1   
    41    23    50 1   
    42    26    27 1   
    43    26    28 1   
    44    29    30 1   
    45    29    51 1   
    46    30    31 1   
    47    30    52 1   
    48    30    53 1   
    49    31    32 1   
    50    31    54 1   
    51    31    55 1   
    52    32    33 1   
    53    33    34 ar  
    54    33    38 ar  
    55    34    35 ar  
    56    34    56 1   
    57    35    36 ar  
    58    35    57 1   
    59    36    37 ar  
    60    36    58 1   
    61    37    38 ar  
    62    37    59 1   
    63    38    60 1   
@<TRIPOS>SUBSTRUCTURE
     1 N3B         1 TEMP              0 ****  ****    0 ROOT
