@<TRIPOS>MOLECULE
N3B
   60    63     1     0     0
SMALL
No Charge or Current Charge


@<TRIPOS>ATOM
      1 C1          -8.7350     3.2050     0.4830 ca         1 N3B      -0.153000
      2 C2          -9.8500     2.3560     0.4890 ca         1 N3B       0.181000
      3 C3          -9.7050     0.9970     0.1800 ca         1 N3B      -0.153000
      4 C4          -8.4350     0.4820    -0.1360 ca         1 N3B      -0.069000
      5 C5          -7.2890     1.3190    -0.1500 cp         1 N3B      -0.064000
      6 C6          -7.4650     2.6920     0.1660 ca         1 N3B      -0.069000
      7 F7         -11.0700     2.8500     0.7940 f          1 N3B      -0.175000
      8 C8          -5.9360     0.7710    -0.4880 cp         1 N3B       0.003000
      9 C9          -4.9900     1.5420    -1.2050 ca         1 N3B      -0.113000
     10 C10         -3.7210     1.0300    -1.5230 ca         1 N3B      -0.061500
     11 C11         -3.3470    -0.2760    -1.1330 ca         1 N3B      -0.161600
     12 C12         -4.2870    -1.0540    -0.4150 ca         1 N3B      -0.061500
     13 C13         -5.5560    -0.5360    -0.1010 ca         1 N3B      -0.113000
     14 C14         -1.9680    -0.7920    -1.4940 c          1 N3B       0.651700
     15 O15         -1.1700    -0.1070    -2.1160 o          1 N3B      -0.563100
     16 N16         -1.6670    -2.0520    -1.0840 ns         1 N3B      -0.581300
     17 S17         -0.2380    -2.8860    -1.3110 sy         1 N3B       1.198300
     18 C18          0.9910    -1.9380    -0.4150 ca         1 N3B      -0.388500
     19 C19          1.1700    -2.1530     0.9620 ca         1 N3B       0.108000
     20 C20          2.1340    -1.4080     1.6770 ca         1 N3B      -0.317200
     21 C21          2.9080    -0.4430     1.0020 ca         1 N3B       0.461000
     22 C22          2.7100    -0.2340    -0.3720 ca         1 N3B      -0.247000
     23 C23          1.7590    -0.9740    -1.0850 ca         1 N3B       0.098000
     24 O24          0.0670    -2.8180    -2.7440 o          1 N3B      -0.526000
     25 O25         -0.4330    -4.1670    -0.6270 o          1 N3B      -0.526000
     26 N26          2.2720    -1.6600     3.1340 no         1 N3B       0.711200
     27 O27          1.2790    -2.0780     3.7420 o          1 N3B      -0.421500
     28 O28          3.3830    -1.5230     3.6610 o          1 N3B      -0.421500
     29 N29          3.8560     0.3260     1.6760 nu         1 N3B      -0.932200
     30 C30          4.7720     1.3360     1.1120 c3         1 N3B       0.220800
     31 C31          5.6700     1.9440     2.2070 c3         1 N3B       0.011600
     32 S32          6.7790     3.2530     1.5100 ss         1 N3B      -0.150000
     33 C33          7.7530     2.4080     0.2650 ca         1 N3B      -0.106000
     34 C34          8.2350     1.1000     0.4710 ca         1 N3B      -0.103000
     35 C35          8.9960     0.4640    -0.5260 ca         1 N3B      -0.098500
     36 C36          9.2820     1.1330    -1.7290 ca         1 N3B      -0.105000
     37 C37          8.8100     2.4410    -1.9320 ca         1 N3B      -0.098500
     38 C38          8.0500     3.0770    -0.9360 ca         1 N3B      -0.103000
     39 HA1         -8.8540     4.2580     0.7270 ha         1 N3B       0.135000
     40 HA2        -10.5740     0.3450     0.1840 ha         1 N3B       0.135000
     41 HB1         -8.3420    -0.5720    -0.3870 ha         1 N3B       0.120500
     42 HB2         -6.6080     3.3620     0.1800 ha         1 N3B       0.120500
     43 HC1         -5.2460     2.5460    -1.5330 ha         1 N3B       0.122500
     44 HD1         -3.0280     1.6580    -2.0790 ha         1 N3B       0.127000
     45 HD2         -4.0550    -2.0640    -0.0870 ha         1 N3B       0.127000
     46 HC2         -6.2480    -1.1550     0.4630 ha         1 N3B       0.122500
     47 H47         -2.3300    -2.5900    -0.5580 hn         1 N3B       0.349500
     48 HG           0.5650    -2.9020     1.4740 ha         1 N3B       0.163000
     49 HF           3.2910     0.5090    -0.9070 ha         1 N3B       0.131000
     50 HE           1.6230    -0.7880    -2.1500 ha         1 N3B       0.155000
     51 H51          4.0450     0.0010     2.6290 hn         1 N3B       0.537000
     52 HH1          5.4040     0.8790     0.3380 h1         1 N3B       0.065700
     53 HH2          4.1960     2.1440     0.6390 h1         1 N3B       0.065700
     54 HI1          5.0410     2.4020     2.9800 h1         1 N3B       0.086200
     55 HI2          6.2770     1.1620     2.6770 h1         1 N3B       0.086200
     56 HJ1          8.0350     0.5740     1.4010 ha         1 N3B       0.119000
     57 HK1          9.3670    -0.5460    -0.3650 ha         1 N3B       0.117500
     58 HL           9.8710     0.6400    -2.4990 ha         1 N3B       0.119000
     59 HK2          9.0330     2.9610    -2.8610 ha         1 N3B       0.117500
     60 HJ2          7.6860     4.0900    -1.0990 ha         1 N3B       0.119000
@<TRIPOS>BOND
     1     1     2 ar  
     2     1     6 ar  
     3     1    39 1   
     4     2     3 ar  
     5     2     7 1   
     6     3     4 ar  
     7     3    40 1   
     8     4     5 ar  
     9     4    41 1   
    10     5     6 ar  
    11     5     8 1   
    12     6    42 1   
    13     8     9 ar  
    14     8    13 ar  
    15     9    10 ar  
    16     9    43 1   
    17    10    11 ar  
    18    10    44 1   
    19    11    12 ar  
    20    11    14 1   
    21    12    13 ar  
    22    12    45 1   
    23    13    46 1   
    24    14    15 2   
    25    14    16 1   
    26    16    17 1   
    27    16    47 1   
    28    17    18 1   
    29    17    24 2   
    30    17    25 2   
    31    18    19 ar  
    32    18    23 ar  
    33    19    20 ar  
    34    19    48 1   
    35    20    21 ar  
    36    20    26 1   
    37    21    22 ar  
    38    21    29 1   
    39    22    23 ar  
    40    22    49 1   
    41    23    50 1   
    42    26    27 1   
    43    26    28 1   
    44    29    30 1   
    45    29    51 1   
    46    30    31 1   
    47    30    52 1   
    48    30    53 1   
    49    31    32 1   
    50    31    54 1   
    51    31    55 1   
    52    32    33 1   
    53    33    34 ar  
    54    33    38 ar  
    55    34    35 ar  
    56    34    56 1   
    57    35    36 ar  
    58    35    57 1   
    59    36    37 ar  
    60    36    58 1   
    61    37    38 ar  
    62    37    59 1   
    63    38    60 1   
@<TRIPOS>SUBSTRUCTURE
     1 N3B         1 TEMP              0 ****  ****    0 ROOT
