@<TRIPOS>MOLECULE
N3C
  101   106     1     0     0
SMALL
No Charge or Current Charge


@<TRIPOS>ATOM
      1 O34          4.7410    -1.7440    -3.5440 o          1 N3C      -0.417500
      2 N33          5.4760    -1.5270    -2.5740 no         1 N3C       0.710200
      3 O33          6.5620    -0.9390    -2.6590 o          1 N3C      -0.417500
      4 C33          5.0850    -2.1060    -1.2680 ca         1 N3C      -0.317200
      5 C32          5.4330    -1.4980    -0.0510 ca         1 N3C       0.472000
      6 N35          6.1030    -0.2850    -0.0100 nu         1 N3C      -0.934200
      7 C36          5.6520     0.9270     0.7030 c3         1 N3C       0.246500
      8 C41          6.7420     2.0210     0.5910 c3         1 N3C       0.018600
      9 S42          8.3290     1.4970     1.3920 ss         1 N3C      -0.152000
     10 C43          9.4610     2.8800     1.1910 ca         1 N3C      -0.096000
     11 C48          9.1030     4.0690     0.5190 ca         1 N3C      -0.105500
     12 C47         10.0340     5.1170     0.3940 ca         1 N3C      -0.097000
     13 C46         11.3230     4.9850     0.9360 ca         1 N3C      -0.110000
     14 C45         11.6830     3.8040     1.6050 ca         1 N3C      -0.097000
     15 C44         10.7550     2.7570     1.7310 ca         1 N3C      -0.105500
     16 C37          4.2950     1.4250     0.1360 c3         1 N3C      -0.099400
     17 C38          3.0630     0.6260     0.6310 c3         1 N3C       0.165800
     18 N39          1.7520     1.2190     0.2700 n3         1 N3C      -0.712600
     19 C40          1.4880     1.2210    -1.1890 c3         1 N3C       0.146600
     20 C39          0.6390     0.5960     1.0220 c3         1 N3C       0.146600
     21 C31          5.0350    -2.0730     1.1610 ca         1 N3C      -0.244000
     22 C30          4.2470    -3.2300     1.1800 ca         1 N3C       0.068000
     23 C34          4.2890    -3.2700    -1.2580 ca         1 N3C       0.137000
     24 C29          3.8620    -3.8180    -0.0350 ca         1 N3C      -0.389500
     25 S28          2.7300    -5.2050    -0.0320 sy         1 N3C       1.204300
     26 O28          2.8360    -5.9090    -1.3150 o          1 N3C      -0.529500
     27 O29          2.8450    -5.9090     1.2480 o          1 N3C      -0.529500
     28 N27          1.2310    -4.4720     0.0020 ns         1 N3C      -0.587300
     29 C26          0.7360    -3.5950    -0.9100 c          1 N3C       0.657700
     30 O26          1.2360    -3.4600    -2.0160 o          1 N3C      -0.571100
     31 C23         -0.4540    -2.7690    -0.4760 ca         1 N3C      -0.223600
     32 C22         -1.0650    -2.9240     0.7900 ca         1 N3C      -0.014500
     33 C21         -2.1360    -2.0960     1.1670 ca         1 N3C      -0.205000
     34 C24         -0.9540    -1.7770    -1.3480 ca         1 N3C      -0.014500
     35 C25         -2.0230    -0.9540    -0.9600 ca         1 N3C      -0.205000
     36 C20         -2.6210    -1.1030     0.3030 ca         1 N3C       0.367000
     37 N17         -3.6830    -0.2710     0.7190 nh         1 N3C      -0.801400
     38 C16         -4.9850    -0.8740     1.1510 c6         1 N3C       0.209800
     39 C15         -5.8220     0.0870     2.0580 c6         1 N3C       0.170800
     40 C18         -3.8390     1.1160     0.1710 c6         1 N3C       0.209800
     41 C19         -4.6990     2.0370     1.0960 c6         1 N3C       0.170800
     42 N14         -6.0220     1.4330     1.4430 n3         1 N3C      -0.742600
     43 C13         -6.8840     2.3200     2.2600 c3         1 N3C       0.232100
     44 C12         -7.2490     3.6350     1.5640 ca         1 N3C      -0.075300
     45 C11         -6.8540     4.8460     2.1730 ca         1 N3C      -0.111000
     46 C10         -7.1280     6.0800     1.5620 ca         1 N3C      -0.106000
     47 C9          -7.7960     6.1200     0.3310 ca         1 N3C      -0.107000
     48 C8          -8.1940     4.9240    -0.2860 ca         1 N3C      -0.103000
     49 C7          -7.9410     3.6680     0.3170 cp         1 N3C      -0.019000
     50 C4          -8.3790     2.4250    -0.3850 cp         1 N3C      -0.003000
     51 C3          -7.8800     2.1180    -1.6740 ca         1 N3C      -0.091500
     52 C2          -8.2760     0.9450    -2.3410 ca         1 N3C      -0.106000
     53 C5          -9.3040     1.5310     0.2070 ca         1 N3C      -0.091500
     54 C6          -9.7010     0.3580    -0.4590 ca         1 N3C      -0.106000
     55 C1          -9.1830     0.0650    -1.7310 ca         1 N3C       0.115000
     56 Cl1         -9.6770    -1.4040    -2.5620 cl         1 N3C      -0.207000
     57 HN35         6.6420    -0.1150    -0.8620 hn         1 N3C       0.537000
     58 H36          5.5220     0.7110     1.7730 h1         1 N3C       0.077700
     59 H411         6.9270     2.2520    -0.4650 h1         1 N3C       0.077200
     60 H412         6.3900     2.9320     1.0910 h1         1 N3C       0.077200
     61 H48          8.1160     4.2010     0.0890 ha         1 N3C       0.117500
     62 H47          9.7540     6.0310    -0.1240 ha         1 N3C       0.114500
     63 H46         12.0410     5.7970     0.8380 ha         1 N3C       0.116000
     64 H45         12.6810     3.7000     2.0260 ha         1 N3C       0.114500
     65 H44         11.0410     1.8450     2.2500 ha         1 N3C       0.117500
     66 H371         4.1490     2.4680     0.4440 hc         1 N3C       0.062200
     67 H372         4.3360     1.4250    -0.9590 hc         1 N3C       0.062200
     68 H381         3.1100    -0.3980     0.2420 h1         1 N3C       0.034700
     69 H382         3.1360     0.5560     1.7260 h1         1 N3C       0.034700
     70 H401         1.4960     0.1990    -1.5900 h1         1 N3C       0.032867
     71 H402         0.5070     1.6640    -1.4040 h1         1 N3C       0.032867
     72 H403         2.2410     1.8110    -1.7290 h1         1 N3C       0.032867
     73 H391         0.7940     0.7030     2.1040 h1         1 N3C       0.032867
     74 H392        -0.3190     1.0720     0.7700 h1         1 N3C       0.032867
     75 H393         0.5630    -0.4740     0.7920 h1         1 N3C       0.032867
     76 H31          5.3130    -1.6050     2.0990 ha         1 N3C       0.125000
     77 H30          3.9180    -3.6410     2.1340 ha         1 N3C       0.132000
     78 H34          3.9800    -3.7320    -2.1980 ha         1 N3C       0.180000
     79 HN27         0.8260    -4.5210     0.9180 hn         1 N3C       0.343500
     80 H22         -0.7210    -3.6710     1.5010 ha         1 N3C       0.119500
     81 H21         -2.5800    -2.2160     2.1500 ha         1 N3C       0.117000
     82 H24         -0.5080    -1.6290    -2.3300 ha         1 N3C       0.119500
     83 H25         -2.3840    -0.2010    -1.6540 ha         1 N3C       0.117000
     84 H161        -5.5850    -1.1250     0.2630 h1         1 N3C       0.052200
     85 H162        -4.8190    -1.8100     1.7020 h1         1 N3C       0.052200
     86 H151        -6.7940    -0.3870     2.2600 h1         1 N3C       0.041450
     87 H152        -5.3070     0.1880     3.0250 h1         1 N3C       0.041450
     88 H181        -2.8540     1.5870     0.0370 h1         1 N3C       0.052200
     89 H182        -4.3200     1.0720    -0.8180 h1         1 N3C       0.052200
     90 H191        -4.1270     2.2400     2.0140 h1         1 N3C       0.041450
     91 H192        -4.8360     3.0010     0.5860 h1         1 N3C       0.041450
     92 H131        -7.8150     1.7990     2.5190 h1         1 N3C       0.039200
     93 H132        -6.3820     2.5410     3.2130 h1         1 N3C       0.039200
     94 H11         -6.3230     4.8310     3.1220 ha         1 N3C       0.111000
     95 H10         -6.8160     7.0060     2.0420 ha         1 N3C       0.116000
     96 H9          -8.0060     7.0750    -0.1460 ha         1 N3C       0.117000
     97 H8          -8.7130     4.9640    -1.2410 ha         1 N3C       0.118000
     98 H3          -7.1700     2.7910    -2.1490 ha         1 N3C       0.117000
     99 H2          -7.8780     0.7180    -3.3270 ha         1 N3C       0.128500
    100 H5          -9.7160     1.7540     1.1880 ha         1 N3C       0.117000
    101 H6         -10.4090    -0.3220     0.0090 ha         1 N3C       0.128500
@<TRIPOS>BOND
     1     1     2 1   
     2     2     3 1   
     3     2     4 1   
     4     4     5 ar  
     5     4    23 ar  
     6     5     6 1   
     7     5    21 ar  
     8     6     7 1   
     9     6    57 1   
    10     7     8 1   
    11     7    16 1   
    12     7    58 1   
    13     8     9 1   
    14     8    59 1   
    15     8    60 1   
    16     9    10 1   
    17    10    11 ar  
    18    10    15 ar  
    19    11    12 ar  
    20    11    61 1   
    21    12    13 ar  
    22    12    62 1   
    23    13    14 ar  
    24    13    63 1   
    25    14    15 ar  
    26    14    64 1   
    27    15    65 1   
    28    16    17 1   
    29    16    66 1   
    30    16    67 1   
    31    17    18 1   
    32    17    68 1   
    33    17    69 1   
    34    18    19 1   
    35    18    20 1   
    36    19    70 1   
    37    19    71 1   
    38    19    72 1   
    39    20    73 1   
    40    20    74 1   
    41    20    75 1   
    42    21    22 ar  
    43    21    76 1   
    44    22    24 ar  
    45    22    77 1   
    46    23    24 ar  
    47    23    78 1   
    48    24    25 1   
    49    25    26 2   
    50    25    27 2   
    51    25    28 1   
    52    28    29 1   
    53    28    79 1   
    54    29    30 2   
    55    29    31 1   
    56    31    32 ar  
    57    31    34 ar  
    58    32    33 ar  
    59    32    80 1   
    60    33    36 ar  
    61    33    81 1   
    62    34    35 ar  
    63    34    82 1   
    64    35    36 ar  
    65    35    83 1   
    66    36    37 1   
    67    37    38 1   
    68    37    40 1   
    69    38    39 1   
    70    38    84 1   
    71    38    85 1   
    72    39    42 1   
    73    39    86 1   
    74    39    87 1   
    75    40    41 1   
    76    40    88 1   
    77    40    89 1   
    78    41    42 1   
    79    41    90 1   
    80    41    91 1   
    81    42    43 1   
    82    43    44 1   
    83    43    92 1   
    84    43    93 1   
    85    44    45 ar  
    86    44    49 ar  
    87    45    46 ar  
    88    45    94 1   
    89    46    47 ar  
    90    46    95 1   
    91    47    48 ar  
    92    47    96 1   
    93    48    49 ar  
    94    48    97 1   
    95    49    50 1   
    96    50    51 ar  
    97    50    53 ar  
    98    51    52 ar  
    99    51    98 1   
   100    52    55 ar  
   101    52    99 1   
   102    53    54 ar  
   103    53   100 1   
   104    54    55 ar  
   105    54   101 1   
   106    55    56 1   
@<TRIPOS>SUBSTRUCTURE
     1 N3C         1 TEMP              0 ****  ****    0 ROOT
