@<TRIPOS>MOLECULE
N3C
  101   106     1     0     0
SMALL
abcg2


@<TRIPOS>ATOM
      1 O34          4.9340    -1.2180    -4.0050 o          1 N3C      -0.417500
      2 N33          5.3100    -0.6560    -3.0020 no         1 N3C       0.710200
      3 O33          6.0700     0.2970    -3.0370 o          1 N3C      -0.417500
      4 C33          4.8480    -1.1280    -1.7260 ca         1 N3C      -0.317200
      5 C32          5.2430    -0.5200    -0.4950 ca         1 N3C       0.472000
      6 N35          6.0550     0.5380    -0.4210 nu         1 N3C      -0.934200
      7 C36          6.4800     1.2530     0.7700 c3         1 N3C       0.246500
      8 C41          7.9620     1.5880     0.6360 c3         1 N3C       0.018600
      9 S42          8.8900     0.0560     0.3510 ss         1 N3C      -0.152000
     10 C43         10.5640     0.5470     0.6050 ca         1 N3C      -0.096000
     11 C48         10.9920     1.8730     0.6110 ca         1 N3C      -0.105500
     12 C47         12.3370     2.1670     0.7940 ca         1 N3C      -0.097000
     13 C46         13.2680     1.1530     0.9580 ca         1 N3C      -0.110000
     14 C45         12.8420    -0.1700     0.9430 ca         1 N3C      -0.097000
     15 C44         11.5010    -0.4750     0.7730 ca         1 N3C      -0.105500
     16 C37          5.6740     2.5350     0.9860 c3         1 N3C      -0.099400
     17 C38          4.1940     2.2800     1.2390 c3         1 N3C       0.165800
     18 N39          3.4750     3.4730     1.6500 n3         1 N3C      -0.712600
     19 C40          3.4380     4.4860     0.6160 c3         1 N3C       0.146600
     20 C39          2.1330     3.1320     2.0740 c3         1 N3C       0.146600
     21 C31          4.7150    -1.1180     0.6810 ca         1 N3C      -0.244000
     22 C30          3.8690    -2.1870     0.6420 ca         1 N3C       0.068000
     23 C34          3.9760    -2.2150    -1.7570 ca         1 N3C       0.137000
     24 C29          3.4880    -2.7390    -0.5880 ca         1 N3C      -0.389500
     25 S28          2.3530    -4.0720    -0.6140 sy         1 N3C       1.204300
     26 O28          2.3480    -4.6730    -1.9300 o          1 N3C      -0.529500
     27 O29          2.5630    -4.8970     0.5620 o          1 N3C      -0.529500
     28 N27          0.8740    -3.3430    -0.3190 ns         1 N3C      -0.587300
     29 C26          0.3320    -2.3820    -1.1470 c          1 N3C       0.657700
     30 O26          0.8770    -2.1110    -2.2000 o          1 N3C      -0.571100
     31 C23         -0.8980    -1.7230    -0.6820 ca         1 N3C      -0.223600
     32 C22         -1.4660    -1.8970     0.5830 ca         1 N3C      -0.014500
     33 C21         -2.6050    -1.2250     0.9630 ca         1 N3C      -0.205000
     34 C24         -1.5420    -0.8430    -1.5520 ca         1 N3C      -0.014500
     35 C25         -2.6860    -0.1690    -1.1890 ca         1 N3C      -0.205000
     36 C20         -3.2540    -0.3210     0.0950 ca         1 N3C       0.367000
     37 N17         -4.3560     0.3890     0.4880 nh         1 N3C      -0.801400
     38 C16         -5.2660    -0.1430     1.4940 c6         1 N3C       0.209800
     39 C15         -6.0300     0.9640     2.1920 c6         1 N3C       0.170800
     40 C18         -5.0100     1.2940    -0.4410 c6         1 N3C       0.209800
     41 C19         -5.8050     2.3590     0.2940 c6         1 N3C       0.170800
     42 N14         -6.7310     1.7600     1.2190 n3         1 N3C      -0.742600
     43 C13         -7.6970     2.6790     1.7640 c3         1 N3C       0.232100
     44 C12         -8.7200     3.0830     0.7290 ca         1 N3C      -0.075300
     45 C11         -8.9950     4.4310     0.5270 ca         1 N3C      -0.111000
     46 C10         -9.9070     4.8510    -0.4320 ca         1 N3C      -0.106000
     47 C9         -10.5510     3.9100    -1.2200 ca         1 N3C      -0.107000
     48 C8         -10.2840     2.5610    -1.0310 ca         1 N3C      -0.103000
     49 C7          -9.3830     2.1300    -0.0600 cp         1 N3C      -0.019000
     50 C4          -9.1510     0.6740     0.0990 cp         1 N3C      -0.003000
     51 C3          -8.6690    -0.0780    -0.9690 ca         1 N3C      -0.091500
     52 C2          -8.4410    -1.4400    -0.8450 ca         1 N3C      -0.106000
     53 C5          -9.4420     0.0190     1.2920 ca         1 N3C      -0.091500
     54 C6          -9.2220    -1.3430     1.4350 ca         1 N3C      -0.106000
     55 C1          -8.7140    -2.0600     0.3640 ca         1 N3C       0.115000
     56 CL1         -8.4200    -3.7620     0.5380 cl         1 N3C      -0.207000
     57 HN35         6.3480     0.9320    -1.3030 hn         1 N3C       0.537000
     58 H36          6.3700     0.6070     1.6400 h1         1 N3C       0.077700
     59 H411         8.1220     2.2920    -0.1830 h1         1 N3C       0.077200
     60 H412         8.3030     2.0540     1.5610 h1         1 N3C       0.077200
     61 H48         10.2910     2.6850     0.4720 ha         1 N3C       0.117500
     62 H47         12.6530     3.2030     0.8010 ha         1 N3C       0.114500
     63 H46         14.3150     1.3870     1.0970 ha         1 N3C       0.116000
     64 H45         13.5550    -0.9730     1.0730 ha         1 N3C       0.114500
     65 H44         11.1810    -1.5100     0.7750 ha         1 N3C       0.117500
     66 H371         6.0940     3.0600     1.8480 hc         1 N3C       0.062200
     67 H372         5.8160     3.1830     0.1170 hc         1 N3C       0.062200
     68 H381         3.7330     1.8270     0.3440 h1         1 N3C       0.034700
     69 H382         4.0960     1.5470     2.0450 h1         1 N3C       0.034700
     70 H401         2.9640     4.1360    -0.3150 h1         1 N3C       0.032867
     71 H402         2.8760     5.3510     0.9700 h1         1 N3C       0.032867
     72 H403         4.4410     4.8340     0.3700 h1         1 N3C       0.032867
     73 H391         2.1670     2.4130     2.8950 h1         1 N3C       0.032867
     74 H392         1.6170     4.0230     2.4340 h1         1 N3C       0.032867
     75 H393         1.5210     2.6940     1.2700 h1         1 N3C       0.032867
     76 H31          4.9770    -0.7200     1.6480 ha         1 N3C       0.125000
     77 H30          3.4990    -2.5930     1.5740 ha         1 N3C       0.132000
     78 H34          3.6910    -2.6390    -2.7070 ha         1 N3C       0.180000
     79 HN27         0.4580    -3.5840     0.5710 hn         1 N3C       0.343500
     80 H22         -1.0220    -2.5530     1.3220 ha         1 N3C       0.119500
     81 H21         -2.9690    -1.3940     1.9650 ha         1 N3C       0.117000
     82 H24         -1.1490    -0.6890    -2.5490 ha         1 N3C       0.119500
     83 H25         -3.1430     0.4730    -1.9270 ha         1 N3C       0.117000
     84 H161        -5.9840    -0.8260     1.0200 h1         1 N3C       0.052200
     85 H162        -4.7230    -0.7070     2.2460 h1         1 N3C       0.052200
     86 H151        -6.7520     0.4980     2.8660 h1         1 N3C       0.041450
     87 H152        -5.3350     1.5600     2.8090 h1         1 N3C       0.041450
     88 H181        -4.2670     1.8100    -1.0470 h1         1 N3C       0.052200
     89 H182        -5.6730     0.7430    -1.1210 h1         1 N3C       0.052200
     90 H191        -5.1090     3.0520     0.8000 h1         1 N3C       0.041450
     91 H192        -6.3510     2.9410    -0.4510 h1         1 N3C       0.041450
     92 H131        -8.1990     2.1890     2.6030 h1         1 N3C       0.039200
     93 H132        -7.2340     3.5880     2.1830 h1         1 N3C       0.039200
     94 H11         -8.4740     5.1680     1.1270 ha         1 N3C       0.111000
     95 H10        -10.1030     5.9070    -0.5690 ha         1 N3C       0.116000
     96 H9         -11.2580     4.2190    -1.9790 ha         1 N3C       0.117000
     97 H8         -10.7950     1.8260    -1.6410 ha         1 N3C       0.118000
     98 H3          -8.4390     0.4080    -1.9090 ha         1 N3C       0.117000
     99 H2          -8.0510    -2.0050    -1.6800 ha         1 N3C       0.128500
    100 H5          -9.8470     0.5700     2.1320 ha         1 N3C       0.117000
    101 H6          -9.4510    -1.8350     2.3700 ha         1 N3C       0.128500
@<TRIPOS>BOND
     1     1     2 1   
     2     2     3 1   
     3     2     4 1   
     4     4     5 ar  
     5     4    23 ar  
     6     5     6 1   
     7     5    21 ar  
     8     6     7 1   
     9     6    57 1   
    10     7     8 1   
    11     7    16 1   
    12     7    58 1   
    13     8     9 1   
    14     8    59 1   
    15     8    60 1   
    16     9    10 1   
    17    10    11 ar  
    18    10    15 ar  
    19    11    12 ar  
    20    11    61 1   
    21    12    13 ar  
    22    12    62 1   
    23    13    14 ar  
    24    13    63 1   
    25    14    15 ar  
    26    14    64 1   
    27    15    65 1   
    28    16    17 1   
    29    16    66 1   
    30    16    67 1   
    31    17    18 1   
    32    17    68 1   
    33    17    69 1   
    34    18    19 1   
    35    18    20 1   
    36    19    70 1   
    37    19    71 1   
    38    19    72 1   
    39    20    73 1   
    40    20    74 1   
    41    20    75 1   
    42    21    22 ar  
    43    21    76 1   
    44    22    24 ar  
    45    22    77 1   
    46    23    24 ar  
    47    23    78 1   
    48    24    25 1   
    49    25    26 2   
    50    25    27 2   
    51    25    28 1   
    52    28    29 1   
    53    28    79 1   
    54    29    30 2   
    55    29    31 1   
    56    31    32 ar  
    57    31    34 ar  
    58    32    33 ar  
    59    32    80 1   
    60    33    36 ar  
    61    33    81 1   
    62    34    35 ar  
    63    34    82 1   
    64    35    36 ar  
    65    35    83 1   
    66    36    37 1   
    67    37    38 1   
    68    37    40 1   
    69    38    39 1   
    70    38    84 1   
    71    38    85 1   
    72    39    42 1   
    73    39    86 1   
    74    39    87 1   
    75    40    41 1   
    76    40    88 1   
    77    40    89 1   
    78    41    42 1   
    79    41    90 1   
    80    41    91 1   
    81    42    43 1   
    82    43    44 1   
    83    43    92 1   
    84    43    93 1   
    85    44    45 ar  
    86    44    49 ar  
    87    45    46 ar  
    88    45    94 1   
    89    46    47 ar  
    90    46    95 1   
    91    47    48 ar  
    92    47    96 1   
    93    48    49 ar  
    94    48    97 1   
    95    49    50 1   
    96    50    51 ar  
    97    50    53 ar  
    98    51    52 ar  
    99    51    98 1   
   100    52    55 ar  
   101    52    99 1   
   102    53    54 ar  
   103    53   100 1   
   104    54    55 ar  
   105    54   101 1   
   106    55    56 1   
@<TRIPOS>SUBSTRUCTURE
     1 N3C         1 TEMP              0 ****  ****    0 ROOT
