@<TRIPOS>MOLECULE
N3D
   18    17     1     0     0
SMALL
No Charge or Current Charge


@<TRIPOS>ATOM
      1 N1           3.1380    -0.2650     0.0040 n8         1 N3D      -0.994200
      2 C2           1.8880     0.5180    -0.0010 c3         1 N3D       0.149800
      3 C3           0.6450    -0.3930     0.0010 c3         1 N3D      -0.083400
      4 C4          -0.6710     0.4090    -0.0110 c3         1 N3D       0.156800
      5 N5          -1.8300    -0.5030     0.0020 n7         1 N3D      -0.857400
      6 C6          -3.1480     0.1600     0.0100 c3         1 N3D       0.144100
      7 HN1          3.9360     0.3800     0.0620 hn         1 N3D       0.391500
      8 HN1A         3.1950    -0.7970     0.8800 hn         1 N3D       0.391500
      9 H2           1.8750     1.1650     0.8880 h1         1 N3D       0.025200
     10 H2A          1.8770     1.1560    -0.8960 h1         1 N3D       0.025200
     11 H3           0.6780    -1.0500    -0.8770 hc         1 N3D       0.053200
     12 H3A          0.6670    -1.0350     0.8910 hc         1 N3D       0.053200
     13 H4          -0.6950     1.0680     0.8670 h1         1 N3D       0.026200
     14 H4A         -0.6950     1.0440    -0.9080 h1         1 N3D       0.026200
     15 HN5         -1.7780    -1.0990    -0.8350 hn         1 N3D       0.406000
     16 H6          -3.9550    -0.5840     0.0290 h1         1 N3D       0.028367
     17 H6A         -3.2570     0.8030     0.8950 h1         1 N3D       0.028367
     18 H6B         -3.2790     0.7830    -0.8850 h1         1 N3D       0.028367
@<TRIPOS>BOND
     1     1     2 1   
     2     1     7 1   
     3     1     8 1   
     4     2     3 1   
     5     2     9 1   
     6     2    10 1   
     7     3     4 1   
     8     3    11 1   
     9     3    12 1   
    10     4     5 1   
    11     4    13 1   
    12     4    14 1   
    13     5     6 1   
    14     5    15 1   
    15     6    16 1   
    16     6    17 1   
    17     6    18 1   
@<TRIPOS>SUBSTRUCTURE
     1 N3D         1 TEMP              0 ****  ****    0 ROOT
