@<TRIPOS>MOLECULE
N3D
   18    17     1     0     0
SMALL
abcg2


@<TRIPOS>ATOM
      1 N1           3.0880    -0.2580     0.0240 n8         1 N3D      -0.994200
      2 C2           1.8520     0.5110     0.0000 c3         1 N3D       0.149800
      3 C3           0.6400    -0.4090     0.0100 c3         1 N3D      -0.083400
      4 C4          -0.6700     0.3620    -0.0010 c3         1 N3D       0.156800
      5 N5          -1.8130    -0.5300     0.0090 n7         1 N3D      -0.857400
      6 C6          -3.0740     0.1840    -0.0080 c3         1 N3D       0.144100
      7 HN1          3.8780     0.3730    -0.0250 hn         1 N3D       0.391500
      8 HN1A         3.1700    -0.7230     0.9200 hn         1 N3D       0.391500
      9 H2           1.7630     1.2240     0.8330 h1         1 N3D       0.025200
     10 H2A          1.8390     1.1090    -0.9150 h1         1 N3D       0.025200
     11 H3           0.6900    -1.0720    -0.8600 hc         1 N3D       0.053200
     12 H3A          0.6710    -1.0500     0.8970 hc         1 N3D       0.053200
     13 H4          -0.7260     0.9950     0.8910 h1         1 N3D       0.026200
     14 H4A         -0.6820     1.0510    -0.8630 h1         1 N3D       0.026200
     15 HN5         -1.7660    -1.1290    -0.8060 hn         1 N3D       0.406000
     16 H6          -3.9020    -0.5230    -0.0680 h1         1 N3D       0.028367
     17 H6A         -3.1900     0.7490     0.9190 h1         1 N3D       0.028367
     18 H6B         -3.1780     0.8960    -0.8390 h1         1 N3D       0.028367
@<TRIPOS>BOND
     1     1     2 1   
     2     1     7 1   
     3     1     8 1   
     4     2     3 1   
     5     2     9 1   
     6     2    10 1   
     7     3     4 1   
     8     3    11 1   
     9     3    12 1   
    10     4     5 1   
    11     4    13 1   
    12     4    14 1   
    13     5     6 1   
    14     5    15 1   
    15     6    16 1   
    16     6    17 1   
    17     6    18 1   
@<TRIPOS>SUBSTRUCTURE
     1 N3D         1 TEMP              0 ****  ****    0 ROOT
