@<TRIPOS>MOLECULE
N3E
   45    47     1     0     0
SMALL
No Charge or Current Charge


@<TRIPOS>ATOM
      1 O2          -1.7560    -2.3930     0.7120 o          1 N3E      -0.553000
      2 C2          -2.7060    -1.6400     0.5830 c          1 N3E       0.612000
      3 N3          -3.9800    -2.1110     0.6670 ns         1 N3E      -0.471500
      4 C4          -5.1390    -1.4180     0.5470 c          1 N3E       0.593200
      5 O4          -6.2290    -1.9510     0.6410 o          1 N3E      -0.547000
      6 C5          -4.9420     0.0060     0.3000 cc         1 N3E      -0.418200
      7 C6          -3.6870     0.5620     0.2030 cd         1 N3E       0.038600
      8 N1          -2.5680    -0.2630     0.3300 n          1 N3E      -0.315000
      9 C1          -1.1880     0.2930     0.2610 c5         1 N3E       0.311700
     10 O6          -1.1410     1.6800     0.6410 os         1 N3E      -0.448000
     11 C14          0.0310     2.2680     0.0070 c5         1 N3E       0.171300
     12 C15         -0.3670     3.6220    -0.6490 c3         1 N3E       0.142600
     13 O5          -0.6170     4.6410     0.3400 oh         1 N3E      -0.711000
     14 C7          -0.7180     0.2990    -1.2300 c5         1 N3E       0.117300
     15 O3          -1.6550     0.8820    -2.1690 oh         1 N3E      -0.725000
     16 C3           0.5630     1.1970    -1.0430 c5         1 N3E       0.146500
     17 N7           1.7090     0.4120    -0.4140 n3         1 N3E      -0.698600
     18 C13          2.9310     1.2480    -0.1660 c6         1 N3E       0.152800
     19 C8           2.1270    -0.8280    -1.1490 c6         1 N3E       0.152800
     20 C9           3.1940    -1.6490    -0.3800 c6         1 N3E      -0.052900
     21 C10          4.4520    -0.8000    -0.0710 c6         1 N3E      -0.189700
     22 C12          4.0150     0.5000     0.6470 c6         1 N3E      -0.052900
     23 C11          5.5210    -1.5880     0.7240 c          1 N3E       0.725000
     24 O13          6.6130    -1.7560     0.2010 o          1 N3E      -0.732500
     25 O12          5.2330    -2.0080     1.8350 o          1 N3E      -0.732500
     26 HN3         -4.0720    -3.0990     0.8420 hn         1 N3E       0.337500
     27 H5          -5.8450     0.5980     0.2040 ha         1 N3E       0.216000
     28 H6          -3.4790     1.6170     0.0270 h4         1 N3E       0.230000
     29 H1          -0.5200    -0.3060     0.8950 h2         1 N3E       0.118700
     30 H4           0.7630     2.4820     0.7930 h1         1 N3E       0.096700
     31 H5'1        -1.2540     3.4700    -1.2780 h1         1 N3E       0.030700
     32 H5'2         0.4530     3.9400    -1.3070 h1         1 N3E       0.030700
     33 H7          -0.9220     5.4440    -0.1420 ho         1 N3E       0.496000
     34 H2          -0.4910    -0.7200    -1.5590 h1         1 N3E       0.079700
     35 H11         -2.4730     0.3350    -2.1360 ho         1 N3E       0.510000
     36 H3           0.8770     1.6570    -1.9910 h1         1 N3E       0.051700
     37 H131         3.3630     1.5620    -1.1280 h1         1 N3E       0.013450
     38 H132         2.6930     2.1700     0.3780 h1         1 N3E       0.013450
     39 H81          1.2840    -1.5090    -1.3120 h1         1 N3E       0.013450
     40 H82          2.5210    -0.5620    -2.1410 h1         1 N3E       0.013450
     41 H91          3.4740    -2.5320    -0.9710 hc         1 N3E       0.053450
     42 H92          2.7530    -2.0250     0.5530 hc         1 N3E       0.053450
     43 H10          4.9060    -0.5150    -1.0310 hc         1 N3E       0.019700
     44 H121         4.8830     1.1570     0.7950 hc         1 N3E       0.053450
     45 H122         3.6220     0.2700     1.6470 hc         1 N3E       0.053450
@<TRIPOS>BOND
     1     1     2 2   
     2     2     3 1   
     3     2     8 1   
     4     3     4 1   
     5     3    26 1   
     6     4     5 2   
     7     4     6 1   
     8     6     7 2   
     9     6    27 1   
    10     7     8 1   
    11     7    28 1   
    12     8     9 1   
    13     9    10 1   
    14     9    14 1   
    15     9    29 1   
    16    10    11 1   
    17    11    12 1   
    18    11    16 1   
    19    11    30 1   
    20    12    13 1   
    21    12    31 1   
    22    12    32 1   
    23    13    33 1   
    24    14    15 1   
    25    14    16 1   
    26    14    34 1   
    27    15    35 1   
    28    16    17 1   
    29    16    36 1   
    30    17    18 1   
    31    17    19 1   
    32    18    22 1   
    33    18    37 1   
    34    18    38 1   
    35    19    20 1   
    36    19    39 1   
    37    19    40 1   
    38    20    21 1   
    39    20    41 1   
    40    20    42 1   
    41    21    22 1   
    42    21    23 1   
    43    21    43 1   
    44    22    44 1   
    45    22    45 1   
    46    23    24 1   
    47    23    25 1   
@<TRIPOS>SUBSTRUCTURE
     1 N3E         1 TEMP              0 ****  ****    0 ROOT
