@<TRIPOS>MOLECULE
N3E
   45    47     1     0     0
SMALL
abcg2


@<TRIPOS>ATOM
      1 O2          -2.2990    -2.5040     0.6520 o          1 N3E      -0.553000
      2 C2          -3.0830    -1.5940     0.4740 c          1 N3E       0.612000
      3 N3          -4.4340    -1.7970     0.3970 ns         1 N3E      -0.471500
      4 C4          -5.4250    -0.8580     0.1520 c          1 N3E       0.593200
      5 O4          -6.5950    -1.1920     0.1030 o          1 N3E      -0.547000
      6 C5          -4.9150     0.4770    -0.0250 cc         1 N3E      -0.418200
      7 C6          -3.5930     0.7060     0.0680 cd         1 N3E       0.038600
      8 N1          -2.6870    -0.2810     0.3290 n          1 N3E      -0.315000
      9 C1          -1.2560     0.0110     0.3850 c5         1 N3E       0.311700
     10 O6          -1.0860     1.2930     0.9010 os         1 N3E      -0.448000
     11 C14         -0.0030     1.9580     0.2480 c5         1 N3E       0.171300
     12 C15         -0.4720     3.2330    -0.4180 c3         1 N3E       0.142600
     13 O5          -1.0040     4.0840     0.5690 oh         1 N3E      -0.711000
     14 C7          -0.5900     0.0160    -0.9940 c5         1 N3E       0.117300
     15 O3          -1.4150     0.6060    -1.9650 oh         1 N3E      -0.725000
     16 C3           0.6060     0.9440    -0.7450 c5         1 N3E       0.146500
     17 N7           1.7640     0.2750    -0.1590 n3         1 N3E      -0.698600
     18 C13          2.8620     1.2330    -0.0350 c6         1 N3E       0.152800
     19 C8           2.2160    -0.8680    -0.9540 c6         1 N3E       0.152800
     20 C9           3.4570    -1.5300    -0.3750 c6         1 N3E      -0.052900
     21 C10          4.6070    -0.5460    -0.2190 c6         1 N3E      -0.189700
     22 C12          4.1020     0.6290     0.6040 c6         1 N3E      -0.052900
     23 C11          5.9000    -1.1900     0.3200 c          1 N3E       0.725000
     24 O13          6.1170    -2.3730    -0.0110 o          1 N3E      -0.732500
     25 O12          6.6430    -0.4750     1.0220 o          1 N3E      -0.732500
     26 HN3         -4.7340    -2.7580     0.5140 hn         1 N3E       0.337500
     27 H5          -5.5990     1.2890    -0.2180 ha         1 N3E       0.216000
     28 H6          -3.1920     1.7020    -0.0320 h4         1 N3E       0.230000
     29 H1          -0.7950    -0.7400     1.0300 h2         1 N3E       0.118700
     30 H4           0.7140     2.2250     1.0260 h1         1 N3E       0.096700
     31 H5'1        -1.2060     3.0070    -1.1990 h1         1 N3E       0.030700
     32 H5'2         0.3990     3.6810    -0.9150 h1         1 N3E       0.030700
     33 H7          -1.4250     4.8290     0.1300 ho         1 N3E       0.496000
     34 H2          -0.3110    -0.9950    -1.2880 h1         1 N3E       0.079700
     35 H11         -1.9490    -0.0780    -2.3790 ho         1 N3E       0.510000
     36 H3           0.8830     1.4350    -1.6930 h1         1 N3E       0.051700
     37 H131         3.1290     1.6360    -1.0290 h1         1 N3E       0.013450
     38 H132         2.5400     2.0870     0.5620 h1         1 N3E       0.013450
     39 H81          1.4310    -1.6230    -0.9960 h1         1 N3E       0.013450
     40 H82          2.4170    -0.5650    -1.9970 h1         1 N3E       0.013450
     41 H91          3.7380    -2.3600    -1.0240 hc         1 N3E       0.053450
     42 H92          3.2070    -1.9620     0.6000 hc         1 N3E       0.053450
     43 H10          4.8340    -0.1400    -1.2210 hc         1 N3E       0.019700
     44 H121         4.8650     1.4040     0.6830 hc         1 N3E       0.053450
     45 H122         3.8680     0.3080     1.6240 hc         1 N3E       0.053450
@<TRIPOS>BOND
     1     1     2 2   
     2     2     3 1   
     3     2     8 1   
     4     3     4 1   
     5     3    26 1   
     6     4     5 2   
     7     4     6 1   
     8     6     7 2   
     9     6    27 1   
    10     7     8 1   
    11     7    28 1   
    12     8     9 1   
    13     9    10 1   
    14     9    14 1   
    15     9    29 1   
    16    10    11 1   
    17    11    12 1   
    18    11    16 1   
    19    11    30 1   
    20    12    13 1   
    21    12    31 1   
    22    12    32 1   
    23    13    33 1   
    24    14    15 1   
    25    14    16 1   
    26    14    34 1   
    27    15    35 1   
    28    16    17 1   
    29    16    36 1   
    30    17    18 1   
    31    17    19 1   
    32    18    22 1   
    33    18    37 1   
    34    18    38 1   
    35    19    20 1   
    36    19    39 1   
    37    19    40 1   
    38    20    21 1   
    39    20    41 1   
    40    20    42 1   
    41    21    22 1   
    42    21    23 1   
    43    21    43 1   
    44    22    44 1   
    45    22    45 1   
    46    23    24 1   
    47    23    25 1   
@<TRIPOS>SUBSTRUCTURE
     1 N3E         1 TEMP              0 ****  ****    0 ROOT
