@<TRIPOS>MOLECULE
N3F
   38    40     1     0     0
SMALL
No Charge or Current Charge


@<TRIPOS>ATOM
      1 NAA          3.6500    -0.3050    -1.6480 nv         1 N3F      -1.064000
      2 OAB         -2.8030    -1.6470    -1.8380 o          1 N3F      -0.533100
      3 CAC         -6.2890     1.1640     0.5240 ca         1 N3F      -0.092000
      4 CAD         -5.1560     1.0420     1.3440 ca         1 N3F      -0.123000
      5 CAE         -6.2600     0.6650    -0.7880 ca         1 N3F      -0.123000
      6 CAF          6.3910    -0.7020     0.7760 ca         1 N3F      -0.066000
      7 CAG          5.8580    -0.0820     1.9160 ca         1 N3F      -0.151000
      8 CAH          5.6300    -0.7780    -0.4010 ca         1 N3F      -0.180000
      9 CAI         -3.9910     0.4270     0.8520 ca         1 N3F      -0.070500
     10 CAJ         -5.0970     0.0490    -1.2830 ca         1 N3F      -0.070500
     11 CAK          0.9840    -0.8170    -0.0280 ca         1 N3F      -0.203000
     12 CAL          0.1750     1.4490     0.2450 ca         1 N3F      -0.203000
     13 CAM          4.5590     0.4560     1.8860 ca         1 N3F      -0.082000
     14 CAN         -0.2890    -1.2240    -0.4610 ca         1 N3F      -0.016500
     15 CAO         -1.1010     1.0510    -0.1870 ca         1 N3F      -0.016500
     16 NAP          2.4730     0.9470     0.7670 nu         1 N3F      -1.000000
     17 CAQ         -2.7070    -0.7420    -1.0150 c          1 N3F       0.601300
     18 CAR          4.3290    -0.2480    -0.4470 ca         1 N3F       0.301000
     19 CAS          1.2230     0.5220     0.3180 ca         1 N3F       0.357000
     20 CAT         -3.9450    -0.0640    -0.4730 ca         1 N3F      -0.162600
     21 CAU         -1.3470    -0.2950    -0.5340 ca         1 N3F      -0.230600
     22 CAV          3.7690     0.3700     0.7230 ca         1 N3F       0.189000
     23 HNAA         4.1540    -0.5030    -2.5090 hn         1 N3F       0.456500
     24 HNAB         2.7730     0.2050    -1.7140 hn         1 N3F       0.456500
     25 HAC         -7.1900     1.6400     0.9060 ha         1 N3F       0.112000
     26 HAD         -5.1810     1.4180     2.3640 ha         1 N3F       0.114500
     27 HAE         -7.1390     0.7530    -1.4220 ha         1 N3F       0.114500
     28 HAF          7.3980    -1.1160     0.8020 ha         1 N3F       0.113000
     29 HAG          6.4520    -0.0160     2.8250 ha         1 N3F       0.118000
     30 HAH          6.0580    -1.2470    -1.2830 ha         1 N3F       0.115000
     31 HAI         -3.1310     0.3230     1.5100 ha         1 N3F       0.123500
     32 HAJ         -5.0900    -0.3340    -2.3020 ha         1 N3F       0.123500
     33 HAK          1.7820    -1.5490     0.0460 ha         1 N3F       0.121000
     34 HAL          0.3500     2.4880     0.5110 ha         1 N3F       0.121000
     35 HAM          4.1600     0.9320     2.7780 ha         1 N3F       0.115000
     36 HAN         -0.4530    -2.2670    -0.7280 ha         1 N3F       0.122500
     37 HAO         -1.8910     1.7970    -0.2610 ha         1 N3F       0.122500
     38 HNAP         2.4160     1.7890     1.3420 hn         1 N3F       0.489000
@<TRIPOS>BOND
     1     1    18 1   
     2     1    23 1   
     3     1    24 1   
     4     2    17 2   
     5     3     4 ar  
     6     3     5 ar  
     7     3    25 1   
     8     4     9 ar  
     9     4    26 1   
    10     5    10 ar  
    11     5    27 1   
    12     6     7 ar  
    13     6     8 ar  
    14     6    28 1   
    15     7    13 ar  
    16     7    29 1   
    17     8    18 ar  
    18     8    30 1   
    19     9    20 ar  
    20     9    31 1   
    21    10    20 ar  
    22    10    32 1   
    23    11    14 ar  
    24    11    19 ar  
    25    11    33 1   
    26    12    15 ar  
    27    12    19 ar  
    28    12    34 1   
    29    13    22 ar  
    30    13    35 1   
    31    14    21 ar  
    32    14    36 1   
    33    15    21 ar  
    34    15    37 1   
    35    16    19 1   
    36    16    22 1   
    37    16    38 1   
    38    17    20 1   
    39    17    21 1   
    40    18    22 ar  
@<TRIPOS>SUBSTRUCTURE
     1 N3F         1 TEMP              0 ****  ****    0 ROOT
