@<TRIPOS>MOLECULE
N3F
   38    40     1     0     0
SMALL
abcg2


@<TRIPOS>ATOM
      1 NAA          3.8140     0.1220    -1.8350 nv         1 N3F      -1.064000
      2 OAB         -2.7220    -1.9310    -1.2830 o          1 N3F      -0.533100
      3 CAC         -6.2160     1.1110     0.4840 ca         1 N3F      -0.092000
      4 CAD         -5.1200     1.1230     1.3370 ca         1 N3F      -0.123000
      5 CAE         -6.1310     0.4680    -0.7460 ca         1 N3F      -0.123000
      6 CAF          6.0320    -1.0200     0.8740 ca         1 N3F      -0.066000
      7 CAG          5.3960    -0.4990     1.9940 ca         1 N3F      -0.151000
      8 CAH          5.5180    -0.8080    -0.3940 ca         1 N3F      -0.180000
      9 CAI         -3.9360     0.5090     0.9550 ca         1 N3F      -0.070500
     10 CAJ         -4.9560    -0.1650    -1.1180 ca         1 N3F      -0.070500
     11 CAK          1.0920    -0.6670    -0.0860 ca         1 N3F      -0.203000
     12 CAL          0.1790     1.5580     0.1030 ca         1 N3F      -0.203000
     13 CAM          4.2270     0.2270     1.8220 ca         1 N3F      -0.082000
     14 CAN         -0.1720    -1.1470    -0.3500 ca         1 N3F      -0.016500
     15 CAO         -1.0810     1.0580    -0.1420 ca         1 N3F      -0.016500
     16 NAP          2.5300     1.2250     0.3960 nu         1 N3F      -1.000000
     17 CAQ         -2.6110    -0.8710    -0.6890 c          1 N3F       0.601300
     18 CAR          4.3470    -0.0640    -0.5820 ca         1 N3F       0.301000
     19 CAS          1.2940     0.7050     0.1460 ca         1 N3F       0.357000
     20 CAT         -3.8420    -0.1350    -0.2780 ca         1 N3F      -0.162600
     21 CAU         -1.2900    -0.3070    -0.3710 ca         1 N3F      -0.230600
     22 CAV          3.7010     0.4500     0.5560 ca         1 N3F       0.189000
     23 HNAA         4.4570     0.0060    -2.6020 hn         1 N3F       0.456500
     24 HNAB         3.2340     0.9400    -1.9440 hn         1 N3F       0.456500
     25 HAC         -7.1360     1.6000     0.7770 ha         1 N3F       0.112000
     26 HAD         -5.1870     1.6100     2.3010 ha         1 N3F       0.114500
     27 HAE         -6.9830     0.4550    -1.4110 ha         1 N3F       0.114500
     28 HAF          6.9440    -1.5930     0.9850 ha         1 N3F       0.113000
     29 HAG          5.7980    -0.6620     2.9850 ha         1 N3F       0.118000
     30 HAH          6.0320    -1.2100    -1.2600 ha         1 N3F       0.115000
     31 HAI         -3.0900     0.5150     1.6300 ha         1 N3F       0.123500
     32 HAJ         -4.8970    -0.6730    -2.0720 ha         1 N3F       0.123500
     33 HAK          1.9260    -1.3540    -0.0470 ha         1 N3F       0.121000
     34 HAL          0.3140     2.6210     0.2600 ha         1 N3F       0.121000
     35 HAM          3.7050     0.6350     2.6800 ha         1 N3F       0.115000
     36 HAN         -0.2980    -2.2080    -0.5230 ha         1 N3F       0.122500
     37 HAO         -1.9090     1.7540    -0.1800 ha         1 N3F       0.122500
     38 HNAP         2.5590     2.1730     0.7380 hn         1 N3F       0.489000
@<TRIPOS>BOND
     1     1    18 1   
     2     1    23 1   
     3     1    24 1   
     4     2    17 2   
     5     3     4 ar  
     6     3     5 ar  
     7     3    25 1   
     8     4     9 ar  
     9     4    26 1   
    10     5    10 ar  
    11     5    27 1   
    12     6     7 ar  
    13     6     8 ar  
    14     6    28 1   
    15     7    13 ar  
    16     7    29 1   
    17     8    18 ar  
    18     8    30 1   
    19     9    20 ar  
    20     9    31 1   
    21    10    20 ar  
    22    10    32 1   
    23    11    14 ar  
    24    11    19 ar  
    25    11    33 1   
    26    12    15 ar  
    27    12    19 ar  
    28    12    34 1   
    29    13    22 ar  
    30    13    35 1   
    31    14    21 ar  
    32    14    36 1   
    33    15    21 ar  
    34    15    37 1   
    35    16    19 1   
    36    16    22 1   
    37    16    38 1   
    38    17    20 1   
    39    17    21 1   
    40    18    22 ar  
@<TRIPOS>SUBSTRUCTURE
     1 N3F         1 TEMP              0 ****  ****    0 ROOT
