@<TRIPOS>MOLECULE
N3H
   58    61     1     0     0
SMALL
No Charge or Current Charge


@<TRIPOS>ATOM
      1 C4           4.3470     2.9580     1.2760 cc         1 N3H      -0.072000
      2 C5          -3.9190    -1.3770    -0.1750 ca         1 N3H      -0.030000
      3 C6           3.4840     5.1240     1.1630 cd         1 N3H      -0.221000
      4 C7          -2.2000    -0.1480    -1.3820 ca         1 N3H       0.256400
      5 C8          -4.7970    -0.2780    -0.2680 ca         1 N3H       0.208000
      6 C10          3.1480     2.6700     0.6500 cd         1 N3H      -0.294900
      7 C13          1.5260     0.9280    -0.3870 cd         1 N3H       0.172500
      8 C15          2.3310    -1.4250    -0.4500 c          1 N3H       0.562200
      9 C17          8.0710    -2.6210    -1.1500 c3         1 N3H      -0.090100
     10 C21          6.9330    -2.7690    -0.1150 c3         1 N3H      -0.055700
     11 O31         -8.1980     0.0640     1.4970 o          1 N3H      -0.525000
     12 S35         -7.1480     0.7830     0.7770 s6         1 N3H       1.187100
     13 O30         -7.4650     1.5730    -0.4140 o          1 N3H      -0.525000
     14 C18         -6.2380     1.7860     1.9330 c3         1 N3H      -0.383100
     15 N26         -6.0750    -0.3930     0.2970 nu         1 N3H      -0.872100
     16 C3          -4.3560     0.8880    -0.9380 ca         1 N3H      -0.030000
     17 C9          -2.6260    -1.2990    -0.7300 ca         1 N3H      -0.333500
     18 S34         -1.4690    -2.6350    -0.6420 sy         1 N3H       1.206600
     19 O28         -0.8730    -2.6890     0.6920 o          1 N3H      -0.532000
     20 O29         -2.0230    -3.8260    -1.2870 o          1 N3H      -0.532000
     21 N24         -0.2110    -2.1770    -1.6080 nu         1 N3H      -0.904300
     22 C14          0.0520    -0.8480    -1.4370 ce         1 N3H       0.781500
     23 N22         -0.9050    -0.1180    -1.9290 nf         1 N3H      -0.648100
     24 C2          -3.0620     0.9510    -1.4900 ca         1 N3H      -0.097000
     25 C12          1.2850    -0.4060    -0.7540 cc         1 N3H      -0.347800
     26 O32          0.5760     1.8650    -0.6120 oh         1 N3H      -0.454100
     27 O27          2.2320    -2.6160    -0.7220 o          1 N3H      -0.563000
     28 N25          3.4850    -0.9260     0.1890 n          1 N3H      -0.105800
     29 C19          5.7120    -1.8940    -0.5050 c3         1 N3H      -0.096400
     30 C16          6.5640    -4.2590     0.0830 c3         1 N3H      -0.090100
     31 N23          3.7160     0.3770     0.5330 nc         1 N3H      -0.367300
     32 C11          2.8000     1.2980     0.2640 cd         1 N3H       0.341200
     33 S33          2.2090     4.1660     0.3960 ss         1 N3H       0.225000
     34 C1           4.5260     4.3320     1.5620 cc         1 N3H      -0.137000
     35 H4           5.1100     2.2310     1.5440 ha         1 N3H       0.146000
     36 H5          -4.2420    -2.2860     0.3300 ha         1 N3H       0.127000
     37 H6           3.3750     6.1980     1.2640 h4         1 N3H       0.159000
     38 H17          8.3730    -1.5710    -1.2480 hc         1 N3H       0.036367
     39 H17A         8.9530    -3.1970    -0.8440 hc         1 N3H       0.036367
     40 H17B         7.7520    -2.9790    -2.1360 hc         1 N3H       0.036367
     41 H20          5.0120    -1.5210     1.5130 h1         1 N3H       0.077200
     42 H20A         4.1840    -2.8570     0.7190 h1         1 N3H       0.077200
     43 H21          7.3190    -2.3960     0.8430 hc         1 N3H       0.044700
     44 H18         -5.9060     1.1330     2.7460 h1         1 N3H       0.105033
     45 H18A        -5.3890     2.2250     1.4020 h1         1 N3H       0.105033
     46 H18B        -6.9190     2.5600     2.3000 h1         1 N3H       0.105033
     47 HN26        -6.2950    -1.2140     0.8460 hn         1 N3H       0.490000
     48 H3          -5.0070     1.7490    -1.0450 ha         1 N3H       0.148000
     49 HN24         0.5490    -2.7330    -1.2410 hn         1 N3H       0.567000
     50 H2          -2.7300     1.8490    -2.0040 ha         1 N3H       0.139000
     51 HO32         0.8730     2.6980    -0.2020 ho         1 N3H       0.491000
     52 H19          5.2930    -2.2530    -1.4540 hc         1 N3H       0.055200
     53 H19A         6.0560    -0.8680    -0.6840 hc         1 N3H       0.055200
     54 H16          5.8600    -4.3880     0.9130 hc         1 N3H       0.036367
     55 H16A         6.1090    -4.6730    -0.8250 hc         1 N3H       0.036367
     56 H16B         7.4580    -4.8500     0.3160 hc         1 N3H       0.036367
     57 H1           5.4200     4.7070     2.0540 ha         1 N3H       0.145000
     58 C20          4.5860    -1.8500     0.5560 c3         1 N3H       0.111000
@<TRIPOS>BOND
     1     1     6 2   
     2     1    34 1   
     3     1    35 1   
     4     2     5 ar  
     5     2    17 ar  
     6     2    36 1   
     7     3    33 1   
     8     3    34 2   
     9     3    37 1   
    10     4    17 ar  
    11     4    23 1   
    12     4    24 ar  
    13     5    15 1   
    14     5    16 ar  
    15     6    32 1   
    16     6    33 1   
    17     7    25 2   
    18     7    26 1   
    19     7    32 1   
    20     8    25 1   
    21     8    27 2   
    22     8    28 1   
    23     9    10 1   
    24     9    38 1   
    25     9    39 1   
    26     9    40 1   
    27    10    29 1   
    28    10    30 1   
    29    10    43 1   
    30    11    12 2   
    31    12    13 2   
    32    12    14 1   
    33    12    15 1   
    34    14    44 1   
    35    14    45 1   
    36    14    46 1   
    37    15    47 1   
    38    16    24 ar  
    39    16    48 1   
    40    17    18 1   
    41    18    19 2   
    42    18    20 2   
    43    18    21 1   
    44    21    22 1   
    45    21    49 1   
    46    22    23 2   
    47    22    25 1   
    48    24    50 1   
    49    26    51 1   
    50    28    31 1   
    51    28    58 1   
    52    29    52 1   
    53    29    53 1   
    54    29    58 1   
    55    30    54 1   
    56    30    55 1   
    57    30    56 1   
    58    31    32 2   
    59    34    57 1   
    60    41    58 1   
    61    42    58 1   
@<TRIPOS>SUBSTRUCTURE
     1 N3H         1 TEMP              0 ****  ****    0 ROOT
