@<TRIPOS>MOLECULE
N3H
   58    61     1     0     0
SMALL
bcc


@<TRIPOS>ATOM
      1 C4           4.8690     3.5810     1.3030 cc         1 N3H      -0.090000
      2 C5          -3.9180    -1.1950    -0.0280 ca         1 N3H      -0.048000
      3 C6           4.7130     5.3010    -0.2350 cd         1 N3H      -0.094100
      4 C7          -2.0120     0.3340    -0.1620 ca         1 N3H       0.256400
      5 C8          -4.6860    -0.3140    -0.7720 ca         1 N3H       0.069600
      6 C10          4.0280     3.0120     0.3910 cd         1 N3H      -0.150000
      7 C13          2.0570     1.4230     0.4300 cd         1 N3H       0.172500
      8 C15          2.5800    -0.9440     0.5060 c          1 N3H       0.704700
      9 C17          6.9500    -3.2870    -2.2480 c3         1 N3H      -0.090100
     10 C21          6.4660    -3.0630    -0.8190 c3         1 N3H      -0.055700
     11 O31         -8.4840    -0.4430    -1.0210 o          1 N3H      -0.595800
     12 S35         -7.2970     0.1390    -0.4210 s6         1 N3H       1.217900
     13 O30         -7.0490     1.5650    -0.5440 o          1 N3H      -0.595800
     14 C18         -7.2450    -0.2910     1.3010 c3         1 N3H      -0.272300
     15 N26         -6.0100    -0.6510    -1.1320 nu         1 N3H      -0.678500
     16 C3          -4.1300     0.8960    -1.1950 ca         1 N3H      -0.048000
     17 C9          -2.6030    -0.8630     0.2600 ca         1 N3H      -0.333500
     18 S34         -1.6500    -1.8940     1.2920 sy         1 N3H       1.348200
     19 O28         -1.7460    -1.4110     2.6580 o          1 N3H      -0.602800
     20 O29         -1.8970    -3.3000     1.0430 o          1 N3H      -0.602800
     21 N24         -0.1680    -1.5170     0.6630 nu         1 N3H      -0.849100
     22 C14          0.1680    -0.2140     0.3770 ce         1 N3H       0.781500
     23 N22         -0.6930     0.6730     0.0250 nf         1 N3H      -0.648100
     24 C2          -2.8260     1.2160    -0.8850 ca         1 N3H      -0.115000
     25 C12          1.6030     0.1200     0.4300 cc         1 N3H      -0.347800
     26 O32          1.2320     2.4450     0.4530 oh         1 N3H      -0.415100
     27 O27          2.3100    -2.1480     0.5310 o          1 N3H      -0.638500
     28 N25          3.9010    -0.5580     0.5620 n          1 N3H      -0.172800
     29 C19          5.3610    -2.0050    -0.8070 c3         1 N3H      -0.096400
     30 C16          6.0000    -4.3830    -0.2080 c3         1 N3H      -0.090100
     31 N23          4.3240     0.6790     0.4860 nc         1 N3H      -0.367300
     32 C11          3.4770     1.6530     0.4240 cd         1 N3H       0.341200
     33 S33          3.7280     4.0880    -0.9300 ss         1 N3H      -0.064800
     34 C1           5.2620     4.8950     0.9430 cc         1 N3H      -0.155000
     35 H4           5.1880     3.0760     2.2040 ha         1 N3H       0.164000
     36 H5          -4.3400    -2.1320     0.3160 ha         1 N3H       0.145000
     37 H6           4.8360     6.2490    -0.7350 h4         1 N3H       0.177000
     38 H17          7.3110    -2.3610    -2.7000 hc         1 N3H       0.036367
     39 H17A         7.7660    -4.0110    -2.2800 hc         1 N3H       0.036367
     40 H17B         6.1410    -3.6690    -2.8750 hc         1 N3H       0.036367
     41 H20          5.7980    -1.1250     1.1200 h1         1 N3H       0.077200
     42 H20A         4.6010    -2.4090     1.1930 h1         1 N3H       0.077200
     43 H21          7.3090    -2.6840    -0.2280 hc         1 N3H       0.044700
     44 H18         -7.3760    -1.3660     1.4030 h1         1 N3H       0.105033
     45 H18A        -6.2930     0.0200     1.7260 h1         1 N3H       0.105033
     46 H18B        -8.0590     0.2330     1.7980 h1         1 N3H       0.105033
     47 HN26        -6.1860    -1.6470    -1.2150 hn         1 N3H       0.434800
     48 H3          -4.7170     1.5760    -1.7960 ha         1 N3H       0.166000
     49 HN24         0.6170    -2.1790     0.7730 hn         1 N3H       0.511800
     50 H2          -2.3960     2.1460    -1.2320 ha         1 N3H       0.157000
     51 HO32         1.7080     3.2810     0.5680 ho         1 N3H       0.452000
     52 H19          4.4870    -2.3930    -1.3410 hc         1 N3H       0.055200
     53 H19A         5.7010    -1.1210    -1.3540 hc         1 N3H       0.055200
     54 H16          5.7140    -4.2830     0.8400 hc         1 N3H       0.036367
     55 H16A         5.1360    -4.7710    -0.7520 hc         1 N3H       0.036367
     56 H16B         6.7890    -5.1340    -0.2570 hc         1 N3H       0.036367
     57 H1           5.9200     5.5120     1.5360 ha         1 N3H       0.163000
     58 C20          4.9560    -1.5740     0.5950 c3         1 N3H       0.111000
@<TRIPOS>BOND
     1     1     6 2   
     2     1    34 1   
     3     1    35 1   
     4     2     5 ar  
     5     2    17 ar  
     6     2    36 1   
     7     3    33 1   
     8     3    34 2   
     9     3    37 1   
    10     4    17 ar  
    11     4    23 1   
    12     4    24 ar  
    13     5    15 1   
    14     5    16 ar  
    15     6    32 1   
    16     6    33 1   
    17     7    25 2   
    18     7    26 1   
    19     7    32 1   
    20     8    25 1   
    21     8    27 2   
    22     8    28 1   
    23     9    10 1   
    24     9    38 1   
    25     9    39 1   
    26     9    40 1   
    27    10    29 1   
    28    10    30 1   
    29    10    43 1   
    30    11    12 2   
    31    12    13 2   
    32    12    14 1   
    33    12    15 1   
    34    14    44 1   
    35    14    45 1   
    36    14    46 1   
    37    15    47 1   
    38    16    24 ar  
    39    16    48 1   
    40    17    18 1   
    41    18    19 2   
    42    18    20 2   
    43    18    21 1   
    44    21    22 1   
    45    21    49 1   
    46    22    23 2   
    47    22    25 1   
    48    24    50 1   
    49    26    51 1   
    50    28    31 1   
    51    28    58 1   
    52    29    52 1   
    53    29    53 1   
    54    29    58 1   
    55    30    54 1   
    56    30    55 1   
    57    30    56 1   
    58    31    32 2   
    59    34    57 1   
    60    41    58 1   
    61    42    58 1   
@<TRIPOS>SUBSTRUCTURE
     1 N3H         1 TEMP              0 ****  ****    0 ROOT
