@<TRIPOS>MOLECULE
N3I
   35    36     1     0     0
SMALL
No Charge or Current Charge


@<TRIPOS>ATOM
      1 N1           6.5210     1.3090    17.6170 nb         1 N3I      -0.643000
      2 C4          11.7250    -1.7260    22.1590 ca         1 N3I      -0.115000
      3 C5          10.3530    -1.5080    22.3810 ca         1 N3I      -0.032300
      4 C6           9.3090    -2.2330    21.5400 c3         1 N3I      -0.110100
      5 C7           8.8670    -1.3510    20.3670 c          1 N3I       0.601100
      6 C8           6.9560     0.2640    19.7820 ca         1 N3I      -0.076000
      7 C10          5.5260     2.0190    18.1920 ca         1 N3I       0.312900
      8 O1           9.5300    -1.2640    19.3400 o          1 N3I      -0.563100
      9 C3          12.6810    -1.0490    22.9320 ca         1 N3I       0.160000
     10 Cl          14.3940    -1.3270    22.6480 cl         1 N3I      -0.204000
     11 C2          12.2760    -0.1490    23.9280 ca         1 N3I      -0.130000
     12 C14          9.9480    -0.6030    23.3820 ca         1 N3I      -0.190000
     13 C1          10.9110     0.0800    24.1580 ca         1 N3I       0.150100
     14 O           10.5670     0.9790    25.1470 os         1 N3I      -0.345100
     15 C            9.1970     1.2950    25.4550 c3         1 N3I       0.148900
     16 N            7.6930    -0.6460    20.5950 ns         1 N3I      -0.151000
     17 C12          5.9080     1.0090    20.3690 ca         1 N3I      -0.092300
     18 C11          5.1900     1.8990    19.5490 ca         1 N3I      -0.141000
     19 C9           7.2190     0.4510    18.4000 ca         1 N3I       0.324900
     20 H2           8.4460    -2.4650    22.1750 hc         1 N3I       0.068200
     21 H3           9.7310    -3.1640    21.1440 hc         1 N3I       0.068200
     22 H4           4.9800     2.7030    17.5430 h4         1 N3I       0.023100
     23 H8          13.0200     0.3740    24.5210 ha         1 N3I       0.145000
     24 H9           8.8870    -0.4410    23.5450 ha         1 N3I       0.116000
     25 H10          9.1500     2.0310    26.2670 h1         1 N3I       0.044033
     26 H11          8.6880     1.7220    24.5810 h1         1 N3I       0.044033
     27 H12          8.6520     0.3990    25.7780 h1         1 N3I       0.044033
     28 H13          7.2860    -0.8020    21.5080 hn         1 N3I       0.150000
     29 H14          4.3770     2.4980    19.9520 ha         1 N3I       0.121000
     30 H15          7.9980    -0.1070    17.8850 h4         1 N3I       0.051100
     31 C13          5.5550     0.8730    21.8480 c3         1 N3I      -0.051800
     32 H1          12.0540    -2.4180    21.3880 ha         1 N3I       0.135000
     33 H5           5.2350    -0.1480    22.0850 hc         1 N3I       0.045700
     34 H6           6.4160     1.1150    22.4830 hc         1 N3I       0.045700
     35 H7           4.7390     1.5470    22.1330 hc         1 N3I       0.045700
@<TRIPOS>BOND
     1     1     7 ar  
     2     1    19 ar  
     3     2     3 ar  
     4     2     9 ar  
     5     2    32 1   
     6     3     4 1   
     7     3    12 ar  
     8     4     5 1   
     9     4    20 1   
    10     4    21 1   
    11     5     8 2   
    12     5    16 1   
    13     6    16 1   
    14     6    17 ar  
    15     6    19 ar  
    16     7    18 ar  
    17     7    22 1   
    18     9    10 1   
    19     9    11 ar  
    20    11    13 ar  
    21    11    23 1   
    22    12    13 ar  
    23    12    24 1   
    24    13    14 1   
    25    14    15 1   
    26    15    25 1   
    27    15    26 1   
    28    15    27 1   
    29    16    28 1   
    30    17    18 ar  
    31    17    31 1   
    32    18    29 1   
    33    19    30 1   
    34    31    33 1   
    35    31    34 1   
    36    31    35 1   
@<TRIPOS>SUBSTRUCTURE
     1 N3I         1 TEMP              0 ****  ****    0 ROOT
