@<TRIPOS>MOLECULE
N3I
   35    36     1     0     0
SMALL
abcg2


@<TRIPOS>ATOM
      1 N1           6.6780     1.5360    17.6420 nb         1 N3I      -0.643000
      2 C4          11.6160    -1.8620    22.2410 ca         1 N3I      -0.115000
      3 C5          10.3600    -1.3580    22.5570 ca         1 N3I      -0.032300
      4 C6           9.1460    -1.7880    21.7770 c3         1 N3I      -0.110100
      5 C7           8.7760    -0.7750    20.6980 c          1 N3I       0.601100
      6 C8           6.7680     0.3390    19.7240 ca         1 N3I      -0.076000
      7 C10          5.4590     1.9650    17.9720 ca         1 N3I       0.312900
      8 O1           9.6180    -0.2690    19.9690 o          1 N3I      -0.563100
      9 C3          12.7160    -1.4100    22.9620 ca         1 N3I       0.160000
     10 CL          14.3030    -2.0410    22.5690 cl         1 N3I      -0.204000
     11 C2          12.6020    -0.4800    23.9770 ca         1 N3I      -0.130000
     12 C14         10.2150    -0.4180    23.5810 ca         1 N3I      -0.190000
     13 C1          11.3330     0.0210    24.2870 ca         1 N3I       0.150100
     14 O           11.2930     0.9320    25.2920 os         1 N3I      -0.345100
     15 C           10.0240     1.4660    25.6720 c3         1 N3I       0.148900
     16 N            7.4410    -0.5140    20.6150 ns         1 N3I      -0.151000
     17 C12          5.4810     0.7860    20.0710 ca         1 N3I      -0.092300
     18 C11          4.8350     1.6130    19.1610 ca         1 N3I      -0.141000
     19 C9           7.3150     0.7380    18.5020 ca         1 N3I       0.324900
     20 H2           8.3040    -1.9530    22.4510 hc         1 N3I       0.068200
     21 H3           9.3430    -2.7310    21.2620 hc         1 N3I       0.068200
     22 H4           4.9590     2.6120    17.2600 h4         1 N3I       0.023100
     23 H8          13.4650    -0.1400    24.5310 ha         1 N3I       0.145000
     24 H9           9.2300    -0.0390    23.8110 ha         1 N3I       0.116000
     25 H10         10.2260     2.1570    26.4870 h1         1 N3I       0.044033
     26 H11          9.5600     2.0020    24.8410 h1         1 N3I       0.044033
     27 H12          9.3540     0.6750    26.0170 h1         1 N3I       0.044033
     28 H13          6.8690    -0.9520    21.3210 hn         1 N3I       0.150000
     29 H14          3.8430     1.9870    19.3830 ha         1 N3I       0.121000
     30 H15          8.3000     0.3980    18.2200 h4         1 N3I       0.051100
     31 C13          4.8310     0.3940    21.3650 c3         1 N3I      -0.051800
     32 H1          11.7370    -2.5880    21.4510 ha         1 N3I       0.135000
     33 H5           4.6700    -0.6880    21.4160 hc         1 N3I       0.045700
     34 H6           5.4530     0.6700    22.2200 hc         1 N3I       0.045700
     35 H7           3.8640     0.8820    21.4710 hc         1 N3I       0.045700
@<TRIPOS>BOND
     1     1     7 ar  
     2     1    19 ar  
     3     2     3 ar  
     4     2     9 ar  
     5     2    32 1   
     6     3     4 1   
     7     3    12 ar  
     8     4     5 1   
     9     4    20 1   
    10     4    21 1   
    11     5     8 2   
    12     5    16 1   
    13     6    16 1   
    14     6    17 ar  
    15     6    19 ar  
    16     7    18 ar  
    17     7    22 1   
    18     9    10 1   
    19     9    11 ar  
    20    11    13 ar  
    21    11    23 1   
    22    12    13 ar  
    23    12    24 1   
    24    13    14 1   
    25    14    15 1   
    26    15    25 1   
    27    15    26 1   
    28    15    27 1   
    29    16    28 1   
    30    17    18 ar  
    31    17    31 1   
    32    18    29 1   
    33    19    30 1   
    34    31    33 1   
    35    31    34 1   
    36    31    35 1   
@<TRIPOS>SUBSTRUCTURE
     1 N3I         1 TEMP              0 ****  ****    0 ROOT
