@<TRIPOS>MOLECULE
N3L
   50    55     1     0     0
SMALL
bcc


@<TRIPOS>ATOM
      1 C4          16.9830    30.0640   111.0500 ca         1 N3L      -0.157000
      2 C5          17.6580    29.1320   110.2460 ca         1 N3L      -0.109000
      3 C6          17.5710    29.1780   108.8660 ca         1 N3L      -0.147000
      4 C7          16.7890    30.1830   108.3040 ca         1 N3L      -0.042200
      5 C8          16.1010    31.1320   109.0940 ca         1 N3L      -0.088800
      6 C11         14.6040    33.5410   105.9530 c6         1 N3L      -0.062700
      7 C12         15.4110    31.9970   108.1890 cc         1 N3L      -0.149400
      8 C13         15.6990    31.5670   106.9260 cd         1 N3L      -0.047300
      9 C15         13.7940    33.6600   107.2650 c6         1 N3L       0.117400
     10 C16         14.5690    33.1870   108.4890 c6         1 N3L       0.001800
     11 C18         13.7310    34.1350   104.8270 c6         1 N3L      -0.097400
     12 C19         12.3300    34.4730   105.3760 c5         1 N3L       0.102200
     13 C20         13.4030    35.1360   107.4400 c6         1 N3L       0.170800
     14 C21         11.4250    35.1420   104.3580 c5         1 N3L      -0.056400
     15 C22         11.7920    36.6330   104.4620 c5         1 N3L      -0.085400
     16 C23         12.5260    36.7820   105.8080 c5         1 N3L       0.175800
     17 C24         11.7730    33.2280   106.0500 c          1 N3L       0.731500
     18 C10         15.1630    32.1230   105.6430 c6         1 N3L       0.023200
     19 C9          16.2080    31.0620   110.4870 ca         1 N3L      -0.081000
     20 N1          16.5250    30.4730   106.9960 na         1 N3L      -0.167400
     21 N2          12.4170    35.4790   106.4370 n3         1 N3L      -0.727600
     22 N3          12.5590    32.9050   107.0940 ns         1 N3L      -0.561900
     23 O25         10.7690    32.6210   105.7160 o          1 N3L      -0.633500
     24 H26         17.0740    29.9980   112.1270 ha         1 N3L       0.129000
     25 H27         18.2580    28.3630   110.7150 ha         1 N3L       0.129000
     26 H28         18.0930    28.4580   108.2480 ha         1 N3L       0.131000
     27 H34         15.4840    34.1790   106.0850 hc         1 N3L       0.060700
     28 H30         13.3790    30.8470   105.8050 hc         1 N3L       0.040367
     29 H32         13.6630    31.4640   104.1760 hc         1 N3L       0.040367
     30 H31         14.6710    30.1860   104.8180 hc         1 N3L       0.040367
     31 H36         15.1950    34.0150   108.8380 hc         1 N3L       0.058700
     32 H35         13.8660    32.9900   109.3050 hc         1 N3L       0.058700
     33 H39         17.0850    32.9340   104.9910 hc         1 N3L       0.040367
     34 H37         16.7280    31.3360   104.3280 hc         1 N3L       0.040367
     35 H38         15.9020    32.7470   103.6960 hc         1 N3L       0.040367
     36 H41         13.6430    33.4630   103.9720 hc         1 N3L       0.055700
     37 H40         14.1820    35.0510   104.4380 hc         1 N3L       0.055700
     38 H42         14.3150    35.7440   107.3550 h1         1 N3L       0.046700
     39 H43         13.0080    35.2960   108.4500 h1         1 N3L       0.046700
     40 H44         10.3800    34.9850   104.6270 hc         1 N3L       0.064700
     41 H45         11.5650    34.7430   103.3530 hc         1 N3L       0.064700
     42 H46         12.4390    36.9410   103.6410 hc         1 N3L       0.046200
     43 H47         10.9020    37.2600   104.4130 hc         1 N3L       0.046200
     44 H49         13.5740    37.0750   105.6440 h1         1 N3L       0.035700
     45 H48         12.0830    37.5520   106.4440 h1         1 N3L       0.035700
     46 H29         15.6920    31.7770   111.1170 ha         1 N3L       0.131000
     47 H33         16.8690    29.9480   106.2090 hn         1 N3L       0.299700
     48 H50         12.3770    32.0720   107.6360 hn         1 N3L       0.327500
     49 C14         14.1490    31.1070   105.0840 c3         1 N3L      -0.086600
     50 C17         16.2880    32.2930   104.6110 c3         1 N3L      -0.086600
@<TRIPOS>BOND
     1     1     2 ar  
     2     1    19 ar  
     3     1    24 1   
     4     2     3 ar  
     5     2    25 1   
     6     3     4 ar  
     7     3    26 1   
     8     4     5 ar  
     9     4    20 1   
    10     5     7 1   
    11     5    19 ar  
    12     6     9 1   
    13     6    11 1   
    14     6    18 1   
    15     6    27 1   
    16     7     8 2   
    17     7    10 1   
    18     8    18 1   
    19     8    20 1   
    20     9    10 1   
    21     9    13 1   
    22     9    22 1   
    23    10    31 1   
    24    10    32 1   
    25    11    12 1   
    26    11    36 1   
    27    11    37 1   
    28    12    14 1   
    29    12    17 1   
    30    12    21 1   
    31    13    21 1   
    32    13    38 1   
    33    13    39 1   
    34    14    15 1   
    35    14    40 1   
    36    14    41 1   
    37    15    16 1   
    38    15    42 1   
    39    15    43 1   
    40    16    21 1   
    41    16    44 1   
    42    16    45 1   
    43    17    22 1   
    44    17    23 2   
    45    18    49 1   
    46    18    50 1   
    47    19    46 1   
    48    20    47 1   
    49    22    48 1   
    50    28    49 1   
    51    29    49 1   
    52    30    49 1   
    53    33    50 1   
    54    34    50 1   
    55    35    50 1   
@<TRIPOS>SUBSTRUCTURE
     1 N3L         1 TEMP              0 ****  ****    0 ROOT
