@<TRIPOS>MOLECULE
N3L
   50    55     1     0     0
SMALL
No Charge or Current Charge


@<TRIPOS>ATOM
      1 C4          17.0210    30.0840   111.1030 ca         1 N3L      -0.139000
      2 C5          17.7490    29.1600   110.3160 ca         1 N3L      -0.091000
      3 C6          17.6670    29.2040   108.9080 ca         1 N3L      -0.129000
      4 C7          16.8500    30.1820   108.3240 ca         1 N3L      -0.042200
      5 C8          16.1490    31.0720   109.0850 ca         1 N3L      -0.088800
      6 C11         14.5790    33.5860   105.9830 c6         1 N3L      -0.062700
      7 C12         15.4190    31.9320   108.1980 cc         1 N3L      -0.149400
      8 C13         15.7410    31.5130   106.9050 cd         1 N3L      -0.047300
      9 C15         13.7300    33.6330   107.3080 c6         1 N3L       0.117400
     10 C16         14.5300    33.1070   108.5310 c6         1 N3L       0.001800
     11 C18         13.7340    34.2310   104.8150 c6         1 N3L      -0.097400
     12 C19         12.2780    34.5230   105.3370 c5         1 N3L       0.102200
     13 C20         13.3030    35.1400   107.5270 c6         1 N3L       0.170800
     14 C21         11.2890    35.2490   104.3900 c5         1 N3L      -0.056400
     15 C22         11.7970    36.7310   104.4230 c5         1 N3L      -0.085400
     16 C23         12.6200    36.8610   105.7480 c5         1 N3L       0.175800
     17 C24         11.6900    33.1840   105.9610 c          1 N3L       0.589000
     18 C10         15.1800    32.1190   105.6230 c6         1 N3L       0.023200
     19 C9          16.2070    31.0580   110.4860 ca         1 N3L      -0.063000
     20 N1          16.6270    30.4070   106.9800 na         1 N3L      -0.217700
     21 N2          12.3890    35.5590   106.4130 n3         1 N3L      -0.727600
     22 N3          12.4870    32.8670   107.0510 ns         1 N3L      -0.494900
     23 O25         10.6990    32.5410   105.6400 o          1 N3L      -0.558000
     24 H26         17.0890    30.0440   112.1870 ha         1 N3L       0.111000
     25 H27         18.3740    28.4120   110.7990 ha         1 N3L       0.111000
     26 H28         18.2230    28.4990   108.2950 ha         1 N3L       0.113000
     27 H34         15.4480    34.2390   106.1480 hc         1 N3L       0.060700
     28 H30         13.3840    30.7900   105.7910 hc         1 N3L       0.040367
     29 H32         13.6530    31.3820   104.1460 hc         1 N3L       0.040367
     30 H31         14.6630    30.1070   104.8100 hc         1 N3L       0.040367
     31 H36         15.1620    33.9170   108.9200 hc         1 N3L       0.058700
     32 H35         13.8390    32.8570   109.3470 hc         1 N3L       0.058700
     33 H39         17.1610    32.8280   104.8880 hc         1 N3L       0.040367
     34 H37         16.7540    31.2100   104.3020 hc         1 N3L       0.040367
     35 H38         15.9700    32.6270   103.5980 hc         1 N3L       0.040367
     36 H41         13.6790    33.5720   103.9410 hc         1 N3L       0.055700
     37 H40         14.2300    35.1390   104.4510 hc         1 N3L       0.055700
     38 H42         14.2010    35.7750   107.5620 h1         1 N3L       0.046700
     39 H43         12.7890    35.2450   108.4940 h1         1 N3L       0.046700
     40 H44         10.2640    35.1860   104.7720 hc         1 N3L       0.064700
     41 H45         11.2840    34.8240   103.3800 hc         1 N3L       0.064700
     42 H46         12.4310    36.9530   103.5570 hc         1 N3L       0.046200
     43 H47         10.9620    37.4390   104.3940 hc         1 N3L       0.046200
     44 H49         13.6850    37.0250   105.5340 h1         1 N3L       0.035700
     45 H48         12.2730    37.6990   106.3680 h1         1 N3L       0.035700
     46 H29         15.6430    31.7730   111.0810 ha         1 N3L       0.113000
     47 H33         17.0170    29.8850   106.2020 hn         1 N3L       0.350000
     48 H50         12.2640    32.0420   107.5890 hn         1 N3L       0.327500
     49 C14         14.1560    31.0470   105.0580 c3         1 N3L      -0.086600
     50 C17         16.3360    32.1960   104.5370 c3         1 N3L      -0.086600
@<TRIPOS>BOND
     1     1     2 ar  
     2     1    19 ar  
     3     1    24 1   
     4     2     3 ar  
     5     2    25 1   
     6     3     4 ar  
     7     3    26 1   
     8     4     5 ar  
     9     4    20 1   
    10     5     7 1   
    11     5    19 ar  
    12     6     9 1   
    13     6    11 1   
    14     6    18 1   
    15     6    27 1   
    16     7     8 2   
    17     7    10 1   
    18     8    18 1   
    19     8    20 1   
    20     9    10 1   
    21     9    13 1   
    22     9    22 1   
    23    10    31 1   
    24    10    32 1   
    25    11    12 1   
    26    11    36 1   
    27    11    37 1   
    28    12    14 1   
    29    12    17 1   
    30    12    21 1   
    31    13    21 1   
    32    13    38 1   
    33    13    39 1   
    34    14    15 1   
    35    14    40 1   
    36    14    41 1   
    37    15    16 1   
    38    15    42 1   
    39    15    43 1   
    40    16    21 1   
    41    16    44 1   
    42    16    45 1   
    43    17    22 1   
    44    17    23 2   
    45    18    49 1   
    46    18    50 1   
    47    19    46 1   
    48    20    47 1   
    49    22    48 1   
    50    28    49 1   
    51    29    49 1   
    52    30    49 1   
    53    33    50 1   
    54    34    50 1   
    55    35    50 1   
@<TRIPOS>SUBSTRUCTURE
     1 N3L         1 TEMP              0 ****  ****    0 ROOT
