@<TRIPOS>MOLECULE
N3M
   21    21     1     0     0
SMALL
No Charge or Current Charge


@<TRIPOS>ATOM
      1 CAA          3.8410    -1.0100    -0.0740 c3         1 N3M      -0.185100
      2 OAC          2.9140     1.2070    -0.0780 o          1 N3M      -0.576100
      3 CAD         -1.4620     1.8370    -0.0560 ca         1 N3M      -0.048000
      4 CAE         -2.5310     0.9270    -0.0450 ca         1 N3M      -0.203000
      5 CAF         -0.1380     1.3660    -0.0610 ca         1 N3M      -0.175000
      6 CAG         -0.9580    -0.9190    -0.0440 ca         1 N3M      -0.244000
      7 NAH          1.4350    -0.5770    -0.0610 ns         1 N3M      -0.152000
      8 CAI          2.6970     0.0010    -0.0710 c          1 N3M       0.609100
      9 CAJ         -2.2760    -0.4480    -0.0390 ca         1 N3M       0.318000
     10 CAK          0.1260    -0.0220    -0.0560 ca         1 N3M       0.021000
     11 HAA          4.8270    -0.5320    -0.0820 hc         1 N3M       0.063033
     12 HAAA         3.7240    -1.6830     0.7830 hc         1 N3M       0.063033
     13 HAAB         3.7130    -1.6910    -0.9230 hc         1 N3M       0.063033
     14 HNAB        -4.2590    -1.0010     0.1400 hn         1 N3M       0.448000
     15 HNAA        -3.1270    -2.3230     0.1380 hn         1 N3M       0.448000
     16 HAD         -1.6590     2.9080    -0.0610 ha         1 N3M       0.112000
     17 HAE         -3.5530     1.2960    -0.0410 ha         1 N3M       0.113000
     18 HAF          0.6650     2.0960    -0.0700 ha         1 N3M       0.148000
     19 HAG         -0.7710    -1.9890    -0.0410 ha         1 N3M       0.105000
     20 HNAH         1.4460    -1.5880    -0.0570 hn         1 N3M       0.146000
     21 NAB         -3.3120    -1.3360    -0.0260 nv         1 N3M      -1.075000
@<TRIPOS>BOND
     1     1     8 1   
     2     1    11 1   
     3     1    12 1   
     4     1    13 1   
     5     2     8 2   
     6     3     4 ar  
     7     3     5 ar  
     8     3    16 1   
     9     4     9 ar  
    10     4    17 1   
    11     5    10 ar  
    12     5    18 1   
    13     6     9 ar  
    14     6    10 ar  
    15     6    19 1   
    16     7     8 1   
    17     7    10 1   
    18     7    20 1   
    19     9    21 1   
    20    14    21 1   
    21    15    21 1   
@<TRIPOS>SUBSTRUCTURE
     1 N3M         1 TEMP              0 ****  ****    0 ROOT
