@<TRIPOS>MOLECULE
N3M
   21    21     1     0     0
SMALL
bcc


@<TRIPOS>ATOM
      1 CAA          3.7670    -1.0100    -0.0530 c3         1 N3M      -0.185100
      2 OAC          2.8190     1.1920    -0.0250 o          1 N3M      -0.576100
      3 CAD         -1.4210     1.8000    -0.0400 ca         1 N3M      -0.066000
      4 CAE         -2.4940     0.9280    -0.0430 ca         1 N3M      -0.221000
      5 CAF         -0.1030     1.3600    -0.0610 ca         1 N3M      -0.193000
      6 CAG         -0.9400    -0.9040    -0.0870 ca         1 N3M      -0.262000
      7 NAH          1.4080    -0.5950    -0.1050 ns         1 N3M      -0.478100
      8 CAI          2.6350    -0.0110    -0.0650 c          1 N3M       0.676100
      9 CAJ         -2.2600    -0.4530    -0.0700 ca         1 N3M       0.179600
     10 CAK          0.1350    -0.0150    -0.0840 ca         1 N3M       0.113600
     11 HAA          4.7160    -0.5050    -0.2120 hc         1 N3M       0.063033
     12 HAAA         3.8040    -1.5200     0.9110 hc         1 N3M       0.063033
     13 HAAB         3.6380    -1.7730    -0.8210 hc         1 N3M       0.063033
     14 HNAB        -4.1870    -1.0140     0.2310 hn         1 N3M       0.392800
     15 HNAA        -3.1070    -2.2840     0.1730 hn         1 N3M       0.392800
     16 HAD         -1.6110     2.8660    -0.0190 ha         1 N3M       0.130000
     17 HAE         -3.5090     1.3060    -0.0270 ha         1 N3M       0.131000
     18 HAF          0.7020     2.0730    -0.0590 ha         1 N3M       0.166000
     19 HAG         -0.7510    -1.9730    -0.1040 ha         1 N3M       0.123000
     20 HNAH         1.4080    -1.6030    -0.1320 hn         1 N3M       0.312500
     21 NAB         -3.3080    -1.3450    -0.1320 nv         1 N3M      -0.826200
@<TRIPOS>BOND
     1     1     8 1   
     2     1    11 1   
     3     1    12 1   
     4     1    13 1   
     5     2     8 2   
     6     3     4 ar  
     7     3     5 ar  
     8     3    16 1   
     9     4     9 ar  
    10     4    17 1   
    11     5    10 ar  
    12     5    18 1   
    13     6     9 ar  
    14     6    10 ar  
    15     6    19 1   
    16     7     8 1   
    17     7    10 1   
    18     7    20 1   
    19     9    21 1   
    20    14    21 1   
    21    15    21 1   
@<TRIPOS>SUBSTRUCTURE
     1 N3M         1 TEMP              0 ****  ****    0 ROOT
