@<TRIPOS>MOLECULE
N3O
   26    27     1     0     0
SMALL
No Charge or Current Charge


@<TRIPOS>ATOM
      1 C1          12.1470     5.3560    44.8630 c3         1 N3O      -0.117400
      2 C2          12.3850     6.5650    44.0090 cc         1 N3O       0.393900
      3 C5          12.0340     8.3410    42.7240 ca         1 N3O       0.485300
      4 C7          10.0700     9.2510    41.9810 ca         1 N3O       0.333900
      5 C8           9.2950     8.2650    42.6520 ca         1 N3O      -0.105000
      6 C10          6.8590     7.5510    43.0850 c          1 N3O       0.605100
      7 C12          5.4410     7.9910    42.6930 c3         1 N3O      -0.156400
      8 C13          4.7910     7.0100    41.6920 c3         1 N3O      -0.078100
      9 C14          9.9770     7.2710    43.3940 ca         1 N3O      -0.022000
     10 C15         11.3740     7.3610    43.3940 ca         1 N3O      -0.267900
     11 O11          7.0490     6.6080    43.8440 o          1 N3O      -0.577100
     12 N9           7.8730     8.3290    42.5380 ns         1 N3O      -0.148000
     13 N6          11.4260     9.3010    42.0070 nb         1 N3O      -0.626000
     14 O4          13.3900     8.2080    42.8800 os         1 N3O      -0.219300
     15 N3          13.6020     7.0360    43.7280 nd         1 N3O      -0.284700
     16 H16         13.0910     4.9250    45.2160 hc         1 N3O       0.062033
     17 H17         11.5430     5.6160    45.7400 hc         1 N3O       0.062033
     18 H18         11.6130     4.5840    44.2970 hc         1 N3O       0.062033
     19 H19          9.5800    10.0310    41.3990 h4         1 N3O       0.022100
     20 H21          5.4670     8.9850    42.2310 hc         1 N3O       0.058700
     21 H25          4.8190     8.0200    43.5960 hc         1 N3O       0.058700
     22 H23          3.7800     7.3430    41.4290 hc         1 N3O       0.046033
     23 H1           5.3810     6.9480    40.7690 hc         1 N3O       0.046033
     24 H22          4.7170     6.0040    42.1230 hc         1 N3O       0.046033
     25 H24          9.4700     6.4760    43.9360 ha         1 N3O       0.163000
     26 H20          7.5410     9.0790    41.9450 hn         1 N3O       0.153000
@<TRIPOS>BOND
     1     1     2 1   
     2     1    16 1   
     3     1    17 1   
     4     1    18 1   
     5     2    10 1   
     6     2    15 2   
     7     3    10 ar  
     8     3    13 ar  
     9     3    14 1   
    10     4     5 ar  
    11     4    13 ar  
    12     4    19 1   
    13     5     9 ar  
    14     5    12 1   
    15     6     7 1   
    16     6    11 2   
    17     6    12 1   
    18     7     8 1   
    19     7    20 1   
    20     7    21 1   
    21     8    22 1   
    22     8    23 1   
    23     8    24 1   
    24     9    10 ar  
    25     9    25 1   
    26    12    26 1   
    27    14    15 1   
@<TRIPOS>SUBSTRUCTURE
     1 N3O         1 TEMP              0 ****  ****    0 ROOT
