@<TRIPOS>MOLECULE
N3O
   26    27     1     0     0
SMALL
abcg2


@<TRIPOS>ATOM
      1 C1          12.2570     5.2040    44.6270 c3         1 N3O      -0.117400
      2 C2          12.3480     6.5650    44.0470 cc         1 N3O       0.393900
      3 C5          11.9420     8.5160    43.0990 ca         1 N3O       0.485300
      4 C7          10.1000     9.4430    42.3010 ca         1 N3O       0.333900
      5 C8           9.3160     8.3160    42.6380 ca         1 N3O      -0.105000
      6 C10          6.9630     7.5330    42.6590 c          1 N3O       0.605100
      7 C12          5.5910     7.9790    42.2000 c3         1 N3O      -0.156400
      8 C13          4.5630     6.8610    42.2030 c3         1 N3O      -0.078100
      9 C14          9.9320     7.2290    43.2490 ca         1 N3O      -0.022000
     10 C15         11.2970     7.3550    43.4800 ca         1 N3O      -0.267900
     11 O11          7.1510     6.5140    43.2970 o          1 N3O      -0.577100
     12 N9           7.9630     8.3900    42.3110 ns         1 N3O      -0.148000
     13 N6          11.3970     9.5600    42.5180 nb         1 N3O      -0.626000
     14 O4          13.2430     8.4360    43.4040 os         1 N3O      -0.219300
     15 N3          13.4690     7.2130    43.9920 nd         1 N3O      -0.284700
     16 H16         13.2320     4.8510    44.9560 hc         1 N3O       0.062033
     17 H17         11.5790     5.1980    45.4810 hc         1 N3O       0.062033
     18 H18         11.8610     4.5030    43.8920 hc         1 N3O       0.062033
     19 H19          9.6180    10.2900    41.8240 h4         1 N3O       0.022100
     20 H21          5.6660     8.4270    41.2070 hc         1 N3O       0.058700
     21 H25          5.2710     8.7870    42.8660 hc         1 N3O       0.058700
     22 H23          3.5970     7.2470    41.8810 hc         1 N3O       0.046033
     23 H1           4.8430     6.0570    41.5220 hc         1 N3O       0.046033
     24 H22          4.4350     6.4320    43.1950 hc         1 N3O       0.046033
     25 H24          9.3940     6.3390    43.5280 ha         1 N3O       0.163000
     26 H20          7.6870     9.2100    41.7890 hn         1 N3O       0.153000
@<TRIPOS>BOND
     1     1     2 1   
     2     1    16 1   
     3     1    17 1   
     4     1    18 1   
     5     2    10 1   
     6     2    15 2   
     7     3    10 ar  
     8     3    13 ar  
     9     3    14 1   
    10     4     5 ar  
    11     4    13 ar  
    12     4    19 1   
    13     5     9 ar  
    14     5    12 1   
    15     6     7 1   
    16     6    11 2   
    17     6    12 1   
    18     7     8 1   
    19     7    20 1   
    20     7    21 1   
    21     8    22 1   
    22     8    23 1   
    23     8    24 1   
    24     9    10 ar  
    25     9    25 1   
    26    12    26 1   
    27    14    15 1   
@<TRIPOS>SUBSTRUCTURE
     1 N3O         1 TEMP              0 ****  ****    0 ROOT
