@<TRIPOS>MOLECULE
N3P
   36    38     1     0     0
SMALL
No Charge or Current Charge


@<TRIPOS>ATOM
      1 CAF          0.2070    -0.9770    -0.1650 ca         1 N3P      -0.132000
      2 CAG         -0.6680    -2.0190     0.1850 ca         1 N3P      -0.183000
      3 CAH          5.7760   -10.5980     0.4580 ca         1 N3P      -0.094500
      4 CAI          7.6960    -9.3160    -0.2990 ca         1 N3P      -0.094500
      5 CAJ          4.9780    -9.4400     0.4040 ca         1 N3P      -0.151000
      6 CAK          6.8990    -8.1580    -0.3540 ca         1 N3P      -0.151000
      7 CAL          1.5640    -1.2510    -0.4020 ca         1 N3P      -0.102000
      8 CAM         -0.1870    -3.3340     0.2980 ca         1 N3P      -0.068000
      9 CAN          3.4020    -2.8500    -0.5250 ca         1 N3P      -0.222000
     10 CAO          1.6600    -4.9230     0.1720 ca         1 N3P      -0.039000
     11 CAS          7.1330   -10.5350     0.1060 ca         1 N3P       0.060000
     12 CAT          5.5340    -8.2060    -0.0070 ca         1 N3P       0.022000
     13 CAU          3.9050    -4.1660    -0.4160 ca         1 N3P       0.331100
     14 CAV          3.0250    -5.2290    -0.0600 ca         1 N3P      -0.216600
     15 CAW          2.0490    -2.5690    -0.2900 ca         1 N3P       0.030000
     16 CAX          1.1740    -3.6110     0.0600 ca         1 N3P      -0.130000
     17 NAP          4.7970    -6.9910    -0.0850 ns         1 N3P      -0.137000
     18 OAA          2.6210    -7.5480     0.3480 o          1 N3P      -0.672100
     19 OAB          6.1050    -2.7730    -2.3720 o          1 N3P      -0.879833
     20 OAC          6.6050    -2.3900    -0.0190 o          1 N3P      -0.879833
     21 OAD          7.6770    -4.2150    -1.2090 o          1 N3P      -0.879833
     22 OAQ          5.2310    -4.4300    -0.6550 os         1 N3P      -0.425500
     23 PAY          6.4220    -3.4270    -1.0720 p5         1 N3P       1.238900
     24 HAF         -0.1660     0.0410    -0.2520 ha         1 N3P       0.078000
     25 HAG         -1.7190    -1.8080     0.3680 ha         1 N3P       0.077000
     26 HAH          5.3420   -11.5430     0.7750 ha         1 N3P       0.107500
     27 HAI          8.7480    -9.2670    -0.5710 ha         1 N3P       0.107500
     28 HAJ          3.9340    -9.5250     0.6900 ha         1 N3P       0.170500
     29 HAK          7.3500    -7.2190    -0.6700 ha         1 N3P       0.170500
     30 HAL          2.2370    -0.4410    -0.6730 ha         1 N3P       0.110000
     31 HAM         -0.8710    -4.1350     0.5690 ha         1 N3P       0.085000
     32 HAN          4.0580    -2.0300    -0.7950 ha         1 N3P       0.164000
     33 HAO          0.9610    -5.7110     0.4450 ha         1 N3P       0.106000
     34 HNAP         5.3650    -6.1870    -0.3110 hn         1 N3P       0.241000
     35 CAR          3.4550    -6.6840     0.0880 c          1 N3P       0.633700
     36 ClA          8.1270   -11.9840     0.1750 cl         1 N3P      -0.276000
@<TRIPOS>BOND
     1     1     2 ar  
     2     1     7 ar  
     3     1    24 1   
     4     2     8 ar  
     5     2    25 1   
     6     3     5 ar  
     7     3    11 ar  
     8     3    26 1   
     9     4     6 ar  
    10     4    11 ar  
    11     4    27 1   
    12     5    12 ar  
    13     5    28 1   
    14     6    12 ar  
    15     6    29 1   
    16     7    15 ar  
    17     7    30 1   
    18     8    16 ar  
    19     8    31 1   
    20     9    13 ar  
    21     9    15 ar  
    22     9    32 1   
    23    10    14 ar  
    24    10    16 ar  
    25    10    33 1   
    26    11    36 1   
    27    12    17 1   
    28    13    14 ar  
    29    13    22 1   
    30    14    35 1   
    31    15    16 ar  
    32    17    34 1   
    33    17    35 1   
    34    18    35 2   
    35    19    23 1   
    36    20    23 1   
    37    21    23 1   
    38    22    23 1   
@<TRIPOS>SUBSTRUCTURE
     1 N3P         1 TEMP              0 ****  ****    0 ROOT
