@<TRIPOS>MOLECULE
N3P
   36    38     1     0     0
SMALL
abcg2


@<TRIPOS>ATOM
      1 CAF          0.2490    -1.0300    -0.1210 ca         1 N3P      -0.132000
      2 CAG         -0.5760    -2.0520     0.4010 ca         1 N3P      -0.183000
      3 CAH          5.7350   -10.4660     0.4060 ca         1 N3P      -0.094500
      4 CAI          7.6660    -9.1500    -0.1590 ca         1 N3P      -0.094500
      5 CAJ          4.9220    -9.3490     0.2800 ca         1 N3P      -0.151000
      6 CAK          6.8580    -8.0350    -0.2850 ca         1 N3P      -0.151000
      7 CAL          1.5260    -1.3020    -0.5280 ca         1 N3P      -0.102000
      8 CAM         -0.0970    -3.3290     0.5040 ca         1 N3P      -0.068000
      9 CAN          3.3580    -2.9320    -0.8470 ca         1 N3P      -0.222000
     10 CAO          1.7460    -4.9410     0.1920 ca         1 N3P      -0.039000
     11 CAS          7.0980   -10.3670     0.1880 ca         1 N3P       0.060000
     12 CAT          5.4770    -8.1160    -0.0690 ca         1 N3P       0.022000
     13 CAU          3.8560    -4.2130    -0.7490 ca         1 N3P       0.331100
     14 CAV          3.0290    -5.2490    -0.1960 ca         1 N3P      -0.216600
     15 CAW          2.0510    -2.6160    -0.4340 ca         1 N3P       0.030000
     16 CAX          1.2220    -3.6400     0.0920 ca         1 N3P      -0.130000
     17 NAP          4.7660    -6.9320    -0.2340 ns         1 N3P      -0.137000
     18 OAA          2.6730    -7.5100     0.4300 o          1 N3P      -0.672100
     19 OAB          6.4610    -2.5050    -2.0230 o          1 N3P      -0.879833
     20 OAC          6.3750    -3.0400     0.4900 o          1 N3P      -0.879833
     21 OAD          7.5600    -4.6530    -1.1350 o          1 N3P      -0.879833
     22 OAQ          5.0700    -4.5340    -1.1780 os         1 N3P      -0.425500
     23 PAY          6.5460    -3.5440    -0.9240 p5         1 N3P       1.238900
     24 HAF         -0.1360    -0.0220    -0.1970 ha         1 N3P       0.078000
     25 HAG         -1.5830    -1.8180     0.7180 ha         1 N3P       0.077000
     26 HAH          5.2920   -11.4160     0.6760 ha         1 N3P       0.107500
     27 HAI          8.7310    -9.0640    -0.3290 ha         1 N3P       0.107500
     28 HAJ          3.8640    -9.4550     0.4500 ha         1 N3P       0.170500
     29 HAK          7.3000    -7.0800    -0.5520 ha         1 N3P       0.170500
     30 HAL          2.1520    -0.5120    -0.9260 ha         1 N3P       0.110000
     31 HAM         -0.7220    -4.1190     0.9050 ha         1 N3P       0.085000
     32 HAN          3.9830    -2.1600    -1.2800 ha         1 N3P       0.164000
     33 HAO          1.1170    -5.7210     0.6030 ha         1 N3P       0.106000
     34 HNAP         5.2920    -6.1360    -0.5980 hn         1 N3P       0.241000
     35 CAR          3.4630    -6.6700     0.0210 c          1 N3P       0.633700
     36 CLA          8.1030   -11.7720     0.3480 cl         1 N3P      -0.276000
@<TRIPOS>BOND
     1     1     2 ar  
     2     1     7 ar  
     3     1    24 1   
     4     2     8 ar  
     5     2    25 1   
     6     3     5 ar  
     7     3    11 ar  
     8     3    26 1   
     9     4     6 ar  
    10     4    11 ar  
    11     4    27 1   
    12     5    12 ar  
    13     5    28 1   
    14     6    12 ar  
    15     6    29 1   
    16     7    15 ar  
    17     7    30 1   
    18     8    16 ar  
    19     8    31 1   
    20     9    13 ar  
    21     9    15 ar  
    22     9    32 1   
    23    10    14 ar  
    24    10    16 ar  
    25    10    33 1   
    26    11    36 1   
    27    12    17 1   
    28    13    14 ar  
    29    13    22 1   
    30    14    35 1   
    31    15    16 ar  
    32    17    34 1   
    33    17    35 1   
    34    18    35 2   
    35    19    23 1   
    36    20    23 1   
    37    21    23 1   
    38    22    23 1   
@<TRIPOS>SUBSTRUCTURE
     1 N3P         1 TEMP              0 ****  ****    0 ROOT
