@<TRIPOS>MOLECULE
N3Q
   34    35     1     0     0
SMALL
No Charge or Current Charge


@<TRIPOS>ATOM
      1 OAP         -2.3980   -11.9590    13.7350 oh         1 N3Q      -0.660500
      2 CAO         -1.9620   -12.9080    12.7410 c3         1 N3Q       0.136100
      3 CAM         -0.4350   -13.2060    12.8440 c3         1 N3Q       0.224800
      4 NAL         -0.0010   -13.9480    14.0680 nh         1 N3Q      -0.799400
      5 CAN          0.4270   -13.0960    15.2200 c3         1 N3Q       0.224800
      6 CAQ          1.9510   -12.7770    15.2950 c3         1 N3Q       0.136100
      7 OAR          2.3780   -11.9160    14.2200 oh         1 N3Q      -0.660500
      8 CAF          0.0030   -15.3730    14.1320 ca         1 N3Q       0.390000
      9 CAA         -0.6620   -16.1470    13.1640 ca         1 N3Q      -0.214500
     10 CAB         -0.6630   -17.5470    13.2260 ca         1 N3Q       0.206500
     11 Cl2         -1.4860   -18.4140    11.9280 cl         1 N3Q      -0.186500
     12 CAE          0.6740   -16.0530    15.1640 ca         1 N3Q      -0.214500
     13 CAD          0.6820   -17.4520    15.2310 ca         1 N3Q       0.206500
     14 Cl1          1.5170   -18.1930    16.5970 cl         1 N3Q      -0.186500
     15 CAC          0.0010   -18.2240    14.2680 ca         1 N3Q      -0.202500
     16 CAG          0.0310   -19.6840    14.3160 cc         1 N3Q       0.450000
     17 NAK         -1.0720   -20.4870    14.2460 na         1 N3Q      -0.490000
     18 CAJ         -0.6250   -21.7770    14.3220 cc         1 N3Q       0.369400
     19 NAI          0.6930   -21.7620    14.4360 nd         1 N3Q      -0.361000
     20 NAH          1.1040   -20.4490    14.4320 nd         1 N3Q      -0.336000
     21 H1          -3.3720   -11.8700    13.6410 ho         1 N3Q       0.447000
     22 H2          -2.1690   -12.5120    11.7370 h1         1 N3Q       0.028450
     23 H3          -2.5220   -13.8460    12.8430 h1         1 N3Q       0.028450
     24 H4          -0.1280   -13.7590    11.9470 h1         1 N3Q       0.067700
     25 H5           0.0970   -12.2470    12.7810 h1         1 N3Q       0.067700
     26 H6          -0.1140   -12.1410    15.1970 h1         1 N3Q       0.067700
     27 H7           0.1240   -13.5700    16.1630 h1         1 N3Q       0.067700
     28 H8           2.5190   -13.7160    15.2750 h1         1 N3Q       0.028450
     29 H9           2.1540   -12.2920    16.2590 h1         1 N3Q       0.028450
     30 H10          3.3520   -11.8120    14.3040 ho         1 N3Q       0.447000
     31 H11         -1.1910   -15.6780    12.3440 ha         1 N3Q       0.132000
     32 H12          1.2050   -15.5090    15.9350 ha         1 N3Q       0.132000
     33 H13         -2.0290   -20.1850    14.1480 hn         1 N3Q       0.362000
     34 H14         -1.2750   -22.6440    14.2900 h5         1 N3Q       0.062100
@<TRIPOS>BOND
     1     1     2 1   
     2     1    21 1   
     3     2     3 1   
     4     2    22 1   
     5     2    23 1   
     6     3     4 1   
     7     3    24 1   
     8     3    25 1   
     9     4     5 1   
    10     4     8 1   
    11     5     6 1   
    12     5    26 1   
    13     5    27 1   
    14     6     7 1   
    15     6    28 1   
    16     6    29 1   
    17     7    30 1   
    18     8     9 ar  
    19     8    12 ar  
    20     9    10 ar  
    21     9    31 1   
    22    10    11 1   
    23    10    15 ar  
    24    12    13 ar  
    25    12    32 1   
    26    13    14 1   
    27    13    15 ar  
    28    15    16 1   
    29    16    17 1   
    30    16    20 2   
    31    17    18 1   
    32    17    33 1   
    33    18    19 2   
    34    18    34 1   
    35    19    20 1   
@<TRIPOS>SUBSTRUCTURE
     1 N3Q         1 TEMP              0 ****  ****    0 ROOT
