@<TRIPOS>MOLECULE
N3Q
   34    35     1     0     0
SMALL
bcc


@<TRIPOS>ATOM
      1 OAP         -2.4650   -12.3600    13.9230 oh         1 N3Q      -0.598300
      2 CAO         -1.9880   -13.0500    12.7920 c3         1 N3Q       0.112900
      3 CAM         -0.4770   -13.1510    12.8860 c3         1 N3Q       0.224800
      4 NAL         -0.0130   -13.8730    14.0550 nh         1 N3Q      -0.661000
      5 CAN          0.4520   -13.0890    15.1840 c3         1 N3Q       0.224800
      6 CAQ          1.9640   -12.9850    15.2720 c3         1 N3Q       0.112900
      7 OAR          2.4430   -12.3620    14.1030 oh         1 N3Q      -0.598300
      8 CAF         -0.0110   -15.2300    14.0910 ca         1 N3Q       0.251600
      9 CAA         -0.4290   -15.9980    12.9830 ca         1 N3Q      -0.232500
     10 CAB         -0.4110   -17.3740    13.0410 ca         1 N3Q       0.114900
     11 CL2         -0.9400   -18.2570    11.6500 cl         1 N3Q      -0.094900
     12 CAE          0.4090   -15.9370    15.2380 ca         1 N3Q      -0.232500
     13 CAD          0.4060   -17.3140    15.2480 ca         1 N3Q       0.114900
     14 CL1          0.9280   -18.1220    16.6870 cl         1 N3Q      -0.094900
     15 CAC          0.0040   -18.0880    14.1620 ca         1 N3Q      -0.202500
     16 CAG          0.0360   -19.5520    14.1880 cc         1 N3Q       0.450000
     17 NAK         -1.0030   -20.3280    14.5740 na         1 N3Q      -0.439700
     18 CAJ         -0.5670   -21.5960    14.4520 cc         1 N3Q       0.369400
     19 NAI          0.6610   -21.6010    14.0190 nd         1 N3Q      -0.361000
     20 NAH          1.0420   -20.3120    13.8530 nd         1 N3Q      -0.336000
     21 H1          -3.4250   -12.4130    13.9260 ho         1 N3Q       0.408000
     22 H2          -2.2310   -12.5270    11.8570 h1         1 N3Q       0.028450
     23 H3          -2.4330   -14.0500    12.7170 h1         1 N3Q       0.028450
     24 H4          -0.0860   -13.6000    11.9700 h1         1 N3Q       0.067700
     25 H5          -0.0530   -12.1490    12.9230 h1         1 N3Q       0.067700
     26 H6           0.0290   -12.0900    15.0900 h1         1 N3Q       0.067700
     27 H7           0.0600   -13.4850    16.1230 h1         1 N3Q       0.067700
     28 H8           2.4070   -13.9790    15.4050 h1         1 N3Q       0.028450
     29 H9           2.2070   -12.4080    16.1750 h1         1 N3Q       0.028450
     30 H10          3.4010   -12.4370    14.0930 ho         1 N3Q       0.408000
     31 H11         -0.7710   -15.5320    12.0720 ha         1 N3Q       0.150000
     32 H12          0.7420   -15.4220    16.1250 ha         1 N3Q       0.150000
     33 H13         -1.9120   -20.0230    14.8880 hn         1 N3Q       0.311700
     34 H14         -1.1670   -22.4600    14.6860 h5         1 N3Q       0.062100
@<TRIPOS>BOND
     1     1     2 1   
     2     1    21 1   
     3     2     3 1   
     4     2    22 1   
     5     2    23 1   
     6     3     4 1   
     7     3    24 1   
     8     3    25 1   
     9     4     5 1   
    10     4     8 1   
    11     5     6 1   
    12     5    26 1   
    13     5    27 1   
    14     6     7 1   
    15     6    28 1   
    16     6    29 1   
    17     7    30 1   
    18     8     9 ar  
    19     8    12 ar  
    20     9    10 ar  
    21     9    31 1   
    22    10    11 1   
    23    10    15 ar  
    24    12    13 ar  
    25    12    32 1   
    26    13    14 1   
    27    13    15 ar  
    28    15    16 1   
    29    16    17 1   
    30    16    20 2   
    31    17    18 1   
    32    17    33 1   
    33    18    19 2   
    34    18    34 1   
    35    19    20 1   
@<TRIPOS>SUBSTRUCTURE
     1 N3Q         1 TEMP              0 ****  ****    0 ROOT
