@<TRIPOS>MOLECULE
N3R
   43    45     1     0     0
SMALL
No Charge or Current Charge


@<TRIPOS>ATOM
      1 N1           5.4770     1.2320    18.0630 ns         1 N3R      -0.374100
      2 C4          13.5080    -0.7010    22.1850 ca         1 N3R      -0.108000
      3 C5          12.3040    -1.4240    22.1390 ca         1 N3R      -0.166000
      4 C6          11.0790    -0.7810    22.4330 ca         1 N3R       0.108100
      5 C7           9.7480    -2.7970    21.8750 c3         1 N3R       0.141600
      6 C8           8.2490    -3.1640    21.8890 c3         1 N3R       0.108000
      7 C10          5.9390    -1.0370    19.6650 cc         1 N3R      -0.030400
      8 C13          5.8510     1.4500    19.3910 ca         1 N3R       0.125600
      9 C15          6.1500     3.0170    21.2240 ca         1 N3R      -0.029000
     10 C17          6.0610     0.6200    21.6440 ca         1 N3R       0.240000
     11 F            5.9460    -0.3550    22.5690 f          1 N3R      -0.157000
     12 C16          6.1650     1.9380    22.1170 ca         1 N3R      -0.192000
     13 C14          5.9600     2.7690    19.8600 ca         1 N3R      -0.188000
     14 C18          5.9900     0.3390    20.2510 ca         1 N3R      -0.162800
     15 C12          5.1520     0.0350    17.4990 c          1 N3R       0.558200
     16 O3           4.7310    -0.0560    16.3570 o          1 N3R      -0.543000
     17 C11          5.4100    -1.1170    18.3770 cd         1 N3R      -0.258200
     18 C9           6.5380    -2.2990    20.2280 c          1 N3R       0.604300
     19 O2           6.3320    -3.4140    19.7650 o          1 N3R      -0.583100
     20 N            7.4320    -2.1200    21.2560 ns         1 N3R      -0.487900
     21 O1           9.8740    -1.4590    22.3950 os         1 N3R      -0.339100
     22 C1          11.0700     0.5940    22.7710 ca         1 N3R       0.111100
     23 O            9.8540     1.2020    23.0430 os         1 N3R      -0.330100
     24 C            9.7420     2.6030    23.3470 c3         1 N3R       0.146900
     25 C3          13.5000     0.6620    22.5210 ca         1 N3R      -0.106000
     26 C2          12.2880     1.3110    22.8130 ca         1 N3R      -0.166000
     27 H1           5.3440     2.0480    17.4810 hn         1 N3R       0.330500
     28 H3          12.3400    -2.4780    21.8790 ha         1 N3R       0.117000
     29 H4          10.3090    -3.5160    22.4850 h1         1 N3R       0.045200
     30 H5          10.1180    -2.8440    20.8430 h1         1 N3R       0.045200
     31 H6           7.9180    -3.2840    22.9290 h1         1 N3R       0.068200
     32 H7           8.1100    -4.1250    21.3780 h1         1 N3R       0.068200
     33 H8           6.2230     4.0380    21.5930 ha         1 N3R       0.122000
     34 H9           6.2330     2.1210    23.1860 ha         1 N3R       0.138000
     35 H10          5.8640     3.6050    19.1710 ha         1 N3R       0.126000
     36 H11          5.2770    -2.0670    17.8720 ha         1 N3R       0.221000
     37 H12          7.5830    -1.1650    21.5590 hn         1 N3R       0.327500
     38 H13          8.6930     2.8720    23.5210 h1         1 N3R       0.040033
     39 H14         10.3100     2.8530    24.2520 h1         1 N3R       0.040033
     40 H15         10.1150     3.2140    22.5150 h1         1 N3R       0.040033
     41 H16         14.4360     1.2160    22.5550 ha         1 N3R       0.116000
     42 H17         12.3150     2.3670    23.0680 ha         1 N3R       0.119000
     43 H2          14.4490    -1.1980    21.9600 ha         1 N3R       0.116000
@<TRIPOS>BOND
     1     1     8 1   
     2     1    15 1   
     3     1    27 1   
     4     2     3 ar  
     5     2    25 ar  
     6     2    43 1   
     7     3     4 ar  
     8     3    28 1   
     9     4    21 1   
    10     4    22 ar  
    11     5     6 1   
    12     5    21 1   
    13     5    29 1   
    14     5    30 1   
    15     6    20 1   
    16     6    31 1   
    17     6    32 1   
    18     7    14 1   
    19     7    17 2   
    20     7    18 1   
    21     8    13 ar  
    22     8    14 ar  
    23     9    12 ar  
    24     9    13 ar  
    25     9    33 1   
    26    10    11 1   
    27    10    12 ar  
    28    10    14 ar  
    29    12    34 1   
    30    13    35 1   
    31    15    16 2   
    32    15    17 1   
    33    17    36 1   
    34    18    19 2   
    35    18    20 1   
    36    20    37 1   
    37    22    23 1   
    38    22    26 ar  
    39    23    24 1   
    40    24    38 1   
    41    24    39 1   
    42    24    40 1   
    43    25    26 ar  
    44    25    41 1   
    45    26    42 1   
@<TRIPOS>SUBSTRUCTURE
     1 N3R         1 TEMP              0 ****  ****    0 ROOT
