@<TRIPOS>MOLECULE
N3R
   43    45     1     0     0
SMALL
abcg2


@<TRIPOS>ATOM
      1 N1           5.1320     1.1580    17.9990 ns         1 N3R      -0.374100
      2 C4          13.5780    -0.6990    22.3730 ca         1 N3R      -0.108000
      3 C5          12.3910    -1.4010    22.1460 ca         1 N3R      -0.166000
      4 C6          11.1670    -0.8180    22.4410 ca         1 N3R       0.108100
      5 C7           9.9160    -2.7110    21.6540 c3         1 N3R       0.141600
      6 C8           8.4590    -3.0680    21.4820 c3         1 N3R       0.108000
      7 C10          5.9840    -0.8800    19.6350 cc         1 N3R      -0.030400
      8 C13          5.4580     1.4840    19.2930 ca         1 N3R       0.125600
      9 C15          5.6760     3.1240    21.0350 ca         1 N3R      -0.029000
     10 C17          6.1840     0.8410    21.4840 ca         1 N3R       0.240000
     11 F            6.5640    -0.1110    22.3650 f          1 N3R      -0.157000
     12 C16          6.0940     2.1350    21.9320 ca         1 N3R      -0.192000
     13 C14          5.3570     2.8100    19.7310 ca         1 N3R      -0.188000
     14 C18          5.8960     0.4570    20.1640 ca         1 N3R      -0.162800
     15 C12          5.1680    -0.1040    17.4530 c          1 N3R       0.558200
     16 O3           4.8420    -0.2960    16.2780 o          1 N3R      -0.543000
     17 C11          5.6270    -1.1410    18.3560 cd         1 N3R      -0.258200
     18 C9           6.4780    -2.0340    20.4760 c          1 N3R       0.604300
     19 O2           5.6910    -2.8360    20.9740 o          1 N3R      -0.583100
     20 N            7.8090    -2.1160    20.5910 ns         1 N3R      -0.487900
     21 O1           9.9600    -1.4170    22.2560 os         1 N3R      -0.339100
     22 C1          11.1230     0.4900    22.9730 ca         1 N3R       0.111100
     23 O            9.8810     0.9840    23.2270 os         1 N3R      -0.330100
     24 C            9.7830     2.2940    23.7820 c3         1 N3R       0.146900
     25 C3          13.5370     0.5810    22.8950 ca         1 N3R      -0.106000
     26 C2          12.3090     1.1770    23.1950 ca         1 N3R      -0.166000
     27 H1           4.8260     1.9000    17.3820 hn         1 N3R       0.330500
     28 H3          12.4310    -2.4010    21.7400 ha         1 N3R       0.117000
     29 H4          10.4040    -3.4500    22.2940 h1         1 N3R       0.045200
     30 H5          10.4300    -2.6890    20.6880 h1         1 N3R       0.045200
     31 H6           7.9550    -3.0560    22.4500 h1         1 N3R       0.068200
     32 H7           8.3860    -4.0800    21.0780 h1         1 N3R       0.068200
     33 H8           5.5980     4.1480    21.3750 ha         1 N3R       0.122000
     34 H9           6.3360     2.3630    22.9600 ha         1 N3R       0.138000
     35 H10          5.0220     3.5710    19.0390 ha         1 N3R       0.126000
     36 H11          5.6870    -2.1420    17.9510 ha         1 N3R       0.221000
     37 H12          8.3690    -1.3750    20.1980 hn         1 N3R       0.327500
     38 H13          8.7200     2.4790    23.9190 h1         1 N3R       0.040033
     39 H14         10.2950     2.3520    24.7450 h1         1 N3R       0.040033
     40 H15         10.2000     3.0410    23.1020 h1         1 N3R       0.040033
     41 H16         14.4510     1.1320    23.0740 ha         1 N3R       0.116000
     42 H17         12.2870     2.1780    23.6010 ha         1 N3R       0.119000
     43 H2          14.5250    -1.1680    22.1370 ha         1 N3R       0.116000
@<TRIPOS>BOND
     1     1     8 1   
     2     1    15 1   
     3     1    27 1   
     4     2     3 ar  
     5     2    25 ar  
     6     2    43 1   
     7     3     4 ar  
     8     3    28 1   
     9     4    21 1   
    10     4    22 ar  
    11     5     6 1   
    12     5    21 1   
    13     5    29 1   
    14     5    30 1   
    15     6    20 1   
    16     6    31 1   
    17     6    32 1   
    18     7    14 1   
    19     7    17 2   
    20     7    18 1   
    21     8    13 ar  
    22     8    14 ar  
    23     9    12 ar  
    24     9    13 ar  
    25     9    33 1   
    26    10    11 1   
    27    10    12 ar  
    28    10    14 ar  
    29    12    34 1   
    30    13    35 1   
    31    15    16 2   
    32    15    17 1   
    33    17    36 1   
    34    18    19 2   
    35    18    20 1   
    36    20    37 1   
    37    22    23 1   
    38    22    26 ar  
    39    23    24 1   
    40    24    38 1   
    41    24    39 1   
    42    24    40 1   
    43    25    26 ar  
    44    25    41 1   
    45    26    42 1   
@<TRIPOS>SUBSTRUCTURE
     1 N3R         1 TEMP              0 ****  ****    0 ROOT
