@<TRIPOS>MOLECULE
N3W
   20    21     1     0     0
SMALL
abcg2


@<TRIPOS>ATOM
      1 CL1          0.7070    18.2370   -16.0720 cl         1 N3W      -0.176000
      2 CAD          0.1470    17.8510   -14.4780 ca         1 N3W       0.078000
      3 CAE          0.0340    16.4940   -14.1410 ca         1 N3W       0.312000
      4 NAM          0.3630    15.5000   -15.0220 nv         1 N3W      -1.075000
      5 CAF         -0.3730    16.1840   -12.8360 ca         1 N3W      -0.171000
      6 CAA         -0.6370    17.1780   -11.9160 ca         1 N3W      -0.065000
      7 CAB         -0.5220    18.5150   -12.2660 ca         1 N3W      -0.149000
      8 CAC         -0.1310    18.8600   -13.5570 ca         1 N3W      -0.078500
      9 CAG         -0.0280    20.2810   -13.8970 cc         1 N3W       0.433000
     10 NAK          0.5420    21.1940   -13.0750 na         1 N3W      -0.497000
     11 CAJ          0.3930    22.3790   -13.6960 cc         1 N3W       0.370400
     12 NAI         -0.2340    22.2100   -14.8250 nd         1 N3W      -0.358000
     13 NAH         -0.5000    20.8890   -14.9520 nd         1 N3W      -0.333000
     14 H1           0.0350    14.5790   -14.7840 hn         1 N3W       0.465500
     15 H2           0.2780    15.7010   -16.0050 hn         1 N3W       0.465500
     16 H3          -0.4730    15.1430   -12.5550 ha         1 N3W       0.117000
     17 H4          -0.9520    16.9090   -10.9160 ha         1 N3W       0.118000
     18 H5          -0.7560    19.2880   -11.5460 ha         1 N3W       0.116000
     19 H6           1.0160    21.0220   -12.2000 hn         1 N3W       0.363000
     20 H7           0.7530    23.3130   -13.2970 h5         1 N3W       0.064100
@<TRIPOS>BOND
     1     1     2 1   
     2     2     3 ar  
     3     2     8 ar  
     4     3     4 1   
     5     3     5 ar  
     6     4    14 1   
     7     4    15 1   
     8     5     6 ar  
     9     5    16 1   
    10     6     7 ar  
    11     6    17 1   
    12     7     8 ar  
    13     7    18 1   
    14     8     9 1   
    15     9    10 1   
    16     9    13 2   
    17    10    11 1   
    18    10    19 1   
    19    11    12 2   
    20    11    20 1   
    21    12    13 1   
@<TRIPOS>SUBSTRUCTURE
     1 N3W         1 TEMP              0 ****  ****    0 ROOT
