@<TRIPOS>MOLECULE
N3W
   20    21     1     0     0
SMALL
No Charge or Current Charge


@<TRIPOS>ATOM
      1 Cl1          0.6180    18.1690   -16.2150 cl         1 N3W      -0.176000
      2 CAD          0.1440    17.8250   -14.5370 ca         1 N3W       0.078000
      3 CAE         -0.0170    16.4670   -14.1530 ca         1 N3W       0.312000
      4 NAM          0.1520    15.4330   -15.0500 nv         1 N3W      -1.075000
      5 CAF         -0.3520    16.1470   -12.8310 ca         1 N3W      -0.171000
      6 CAA         -0.5300    17.1610   -11.8820 ca         1 N3W      -0.065000
      7 CAB         -0.3710    18.5040   -12.2530 ca         1 N3W      -0.149000
      8 CAC         -0.0240    18.8650   -13.5770 ca         1 N3W      -0.078500
      9 CAG          0.0770    20.2980   -13.9120 cc         1 N3W       0.433000
     10 NAK          0.3640    21.2780   -12.9990 na         1 N3W      -0.497000
     11 CAJ          0.3220    22.4710   -13.6660 cc         1 N3W       0.370400
     12 NAI          0.0050    22.2380   -14.9280 nd         1 N3W      -0.358000
     13 NAH         -0.1590    20.8800   -15.0780 nd         1 N3W      -0.333000
     14 H1          -0.1270    14.4870   -14.7970 hn         1 N3W       0.465500
     15 H2           0.2660    15.6430   -16.0410 hn         1 N3W       0.465500
     16 H3          -0.4770    15.1080   -12.5350 ha         1 N3W       0.117000
     17 H4          -0.7970    16.9070   -10.8580 ha         1 N3W       0.118000
     18 H5          -0.5360    19.2700   -11.4980 ha         1 N3W       0.116000
     19 H6           0.5820    21.1440   -12.0240 hn         1 N3W       0.363000
     20 H7           0.5200    23.4310   -13.2020 h5         1 N3W       0.064100
@<TRIPOS>BOND
     1     1     2 1   
     2     2     3 ar  
     3     2     8 ar  
     4     3     4 1   
     5     3     5 ar  
     6     4    14 1   
     7     4    15 1   
     8     5     6 ar  
     9     5    16 1   
    10     6     7 ar  
    11     6    17 1   
    12     7     8 ar  
    13     7    18 1   
    14     8     9 1   
    15     9    10 1   
    16     9    13 2   
    17    10    11 1   
    18    10    19 1   
    19    11    12 2   
    20    11    20 1   
    21    12    13 1   
@<TRIPOS>SUBSTRUCTURE
     1 N3W         1 TEMP              0 ****  ****    0 ROOT
