@<TRIPOS>MOLECULE
N3X
   31    32     1     0     0
SMALL
abcg2


@<TRIPOS>ATOM
      1 C1          11.1160     4.9710    42.9450 c3         1 N3X       0.084900
      2 C5          12.4320     8.2850    43.6810 ca         1 N3X      -0.233900
      3 C6          12.2400     9.6760    43.7350 ca         1 N3X      -0.029000
      4 C7          11.0060    10.1810    43.3900 ca         1 N3X      -0.149000
      5 C8           9.9380     9.3400    42.9850 ca         1 N3X      -0.063300
      6 C11          6.7640     8.4920    43.1780 c          1 N3X       0.589100
      7 C13          5.7700     7.4870    42.6320 c3         1 N3X      -0.157400
      8 C14          6.1040     6.0700    43.1070 c3         1 N3X      -0.082100
      9 C15         10.1050     7.9720    42.9240 ca         1 N3X      -0.120000
     10 C16         11.3590     7.4570    43.2810 ca         1 N3X      -0.028200
     11 O12          6.8500     8.7290    44.3840 o          1 N3X      -0.597100
     12 N10          7.5580     9.0920    42.2660 ns         1 N3X      -0.509900
     13 C9           8.6220    10.0030    42.6260 c3         1 N3X       0.146300
     14 C4          13.4970     7.3800    43.9390 cc         1 N3X       0.360800
     15 N3          13.1170     6.1320    43.7240 nd         1 N3X      -0.517100
     16 N2          11.8170     6.1760    43.3340 na         1 N3X       0.059600
     17 H18         11.6050     4.1220    43.4160 h1         1 N3X       0.052700
     18 H19         10.0830     5.0260    43.2850 h1         1 N3X       0.052700
     19 H17         11.1290     4.8420    41.8600 h1         1 N3X       0.052700
     20 H21         13.0430    10.3350    44.0410 ha         1 N3X       0.119000
     21 H22         10.8370    11.2510    43.4250 ha         1 N3X       0.112000
     22 H26          5.7460     7.5240    41.5410 hc         1 N3X       0.058200
     23 H30          4.7820     7.7770    42.9960 hc         1 N3X       0.058200
     24 H28          5.3650     5.3610    42.7310 hc         1 N3X       0.042033
     25 H1           7.0870     5.7590    42.7480 hc         1 N3X       0.042033
     26 H27          6.1050     6.0180    44.1970 hc         1 N3X       0.042033
     27 H29          9.3000     7.3220    42.6140 ha         1 N3X       0.117000
     28 H25          7.4720     8.8160    41.3010 hn         1 N3X       0.312500
     29 H23          8.7780    10.6850    41.7870 h1         1 N3X       0.067200
     30 H24          8.2860    10.6050    43.4710 h1         1 N3X       0.067200
     31 H20         14.5010     7.5920    44.2730 h4         1 N3X       0.049800
@<TRIPOS>BOND
     1     1    16 1   
     2     1    17 1   
     3     1    18 1   
     4     1    19 1   
     5     2     3 ar  
     6     2    10 ar  
     7     2    14 1   
     8     3     4 ar  
     9     3    20 1   
    10     4     5 ar  
    11     4    21 1   
    12     5     9 ar  
    13     5    13 1   
    14     6     7 1   
    15     6    11 2   
    16     6    12 1   
    17     7     8 1   
    18     7    22 1   
    19     7    23 1   
    20     8    24 1   
    21     8    25 1   
    22     8    26 1   
    23     9    10 ar  
    24     9    27 1   
    25    10    16 1   
    26    12    13 1   
    27    12    28 1   
    28    13    29 1   
    29    13    30 1   
    30    14    15 2   
    31    14    31 1   
    32    15    16 1   
@<TRIPOS>SUBSTRUCTURE
     1 N3X         1 TEMP              0 ****  ****    0 ROOT
