@<TRIPOS>MOLECULE
N3X
   31    32     1     0     0
SMALL
No Charge or Current Charge


@<TRIPOS>ATOM
      1 C1          12.7620     5.4060    41.5480 c3         1 N3X       0.084900
      2 C5          12.0100     7.8140    44.1320 ca         1 N3X      -0.233900
      3 C6          11.2390     8.8620    44.6490 ca         1 N3X      -0.029000
      4 C7          10.1640     9.3260    43.8610 ca         1 N3X      -0.149000
      5 C8           9.8850     8.7470    42.5940 ca         1 N3X      -0.063300
      6 C11          6.5350     8.9690    42.9830 c          1 N3X       0.589100
      7 C13          5.3430     8.0250    43.1700 c3         1 N3X      -0.157400
      8 C14          5.4100     7.2860    44.5240 c3         1 N3X      -0.082100
      9 C15         10.6890     7.6870    42.1130 ca         1 N3X      -0.120000
     10 C16         11.7480     7.2530    42.9230 ca         1 N3X      -0.028200
     11 O12          6.6240    10.0380    43.5690 o          1 N3X      -0.597100
     12 N10          7.4800     8.5400    42.0800 ns         1 N3X      -0.509900
     13 C9           8.7170     9.2570    41.7620 c3         1 N3X       0.146300
     14 C4          13.1550     7.1060    44.6540 cc         1 N3X       0.360800
     15 N3          13.5820     6.1520    43.8090 nd         1 N3X      -0.517100
     16 N2          12.6920     6.2640    42.7420 na         1 N3X       0.059600
     17 H18         13.5960     4.7010    41.6420 h1         1 N3X       0.052700
     18 H19         11.8250     4.8460    41.4450 h1         1 N3X       0.052700
     19 H17         12.9140     6.0290    40.6590 h1         1 N3X       0.052700
     20 H21         11.4590     9.3010    45.6210 ha         1 N3X       0.119000
     21 H22          9.5420    10.1370    44.2340 ha         1 N3X       0.112000
     22 H26          5.3260     7.2740    42.3710 hc         1 N3X       0.058200
     23 H30          4.4180     8.6130    43.1450 hc         1 N3X       0.058200
     24 H28          4.5500     6.6150    44.6390 hc         1 N3X       0.042033
     25 H1           6.3250     6.6860    44.5930 hc         1 N3X       0.042033
     26 H27          5.4010     8.0000    45.3570 hc         1 N3X       0.042033
     27 H29         10.4930     7.2240    41.1480 ha         1 N3X       0.117000
     28 H25          7.3180     7.6410    41.6410 hn         1 N3X       0.312500
     29 H23          8.9380     9.1190    40.6950 h1         1 N3X       0.067200
     30 H24          8.5800    10.3330    41.9310 h1         1 N3X       0.067200
     31 H20         13.6950     7.2260    45.5840 h4         1 N3X       0.049800
@<TRIPOS>BOND
     1     1    16 1   
     2     1    17 1   
     3     1    18 1   
     4     1    19 1   
     5     2     3 ar  
     6     2    10 ar  
     7     2    14 1   
     8     3     4 ar  
     9     3    20 1   
    10     4     5 ar  
    11     4    21 1   
    12     5     9 ar  
    13     5    13 1   
    14     6     7 1   
    15     6    11 2   
    16     6    12 1   
    17     7     8 1   
    18     7    22 1   
    19     7    23 1   
    20     8    24 1   
    21     8    25 1   
    22     8    26 1   
    23     9    10 ar  
    24     9    27 1   
    25    10    16 1   
    26    12    13 1   
    27    12    28 1   
    28    13    29 1   
    29    13    30 1   
    30    14    15 2   
    31    14    31 1   
    32    15    16 1   
@<TRIPOS>SUBSTRUCTURE
     1 N3X         1 TEMP              0 ****  ****    0 ROOT
