@<TRIPOS>MOLECULE
N3Z
   54    57     1     0     0
SMALL
No Charge or Current Charge


@<TRIPOS>ATOM
      1 C19          6.3660    54.4790    84.7310 c3         1 N3Z      -0.076400
      2 C17          9.0930    56.2750    89.3190 c3         1 N3Z       0.146900
      3 C22          9.4080    50.7930    85.4090 c3         1 N3Z      -0.180100
      4 C15          9.0620    59.8380    89.1950 c3         1 N3Z       0.150900
      5 C8           5.3210    54.1440    89.7290 ca         1 N3Z      -0.152800
      6 C9           6.8200    56.5570    87.1870 cp         1 N3Z      -0.084000
      7 C12          7.5790    58.9590    85.8640 ca         1 N3Z       0.137100
      8 C13          7.5930    60.4470    83.8810 c3         1 N3Z       0.144900
      9 C14          7.9820    58.7530    87.2040 ca         1 N3Z       0.047100
     10 C10          6.4360    56.7940    85.8400 ca         1 N3Z      -0.029300
     11 C11          6.8190    57.9790    85.1920 ca         1 N3Z      -0.199000
     12 C6           6.3850    55.2880    87.8660 cp         1 N3Z      -0.066000
     13 C5           6.5780    54.0180    87.2340 ca         1 N3Z      -0.038300
     14 C2           4.4470    52.3870    91.0720 c5         1 N3Z       0.181800
     15 C3           5.5030    52.9270    89.1190 ca         1 N3Z       0.142100
     16 C4           6.1250    52.8340    87.8700 ca         1 N3Z      -0.136000
     17 C7           5.7420    55.3380    89.1320 ca         1 N3Z      -0.012000
     18 C1           4.6510    53.9000    90.9900 ce         1 N3Z      -0.084400
     19 O1           7.9510    60.1400    85.2400 os         1 N3Z      -0.323100
     20 O2           8.7250    59.7740    87.7980 os         1 N3Z      -0.335100
     21 O4           9.8810    52.9030    86.4740 o          1 N3Z      -0.598100
     22 C21          9.0820    52.2090    85.8640 c          1 N3Z       0.601100
     23 C20          7.2770    53.9620    85.8680 c3         1 N3Z       0.152000
     24 C18          5.5900    55.7740    85.0780 c3         1 N3Z      -0.029100
     25 C16          7.6180    57.5340    87.8500 ca         1 N3Z       0.137100
     26 C            4.3020    54.8550    91.8780 c2         1 N3Z      -0.296000
     27 O            5.0250    51.8420    89.8280 os         1 N3Z      -0.329100
     28 H1           5.6400    53.7030    84.4590 hc         1 N3Z       0.046200
     29 H2           6.9850    54.6600    83.8440 hc         1 N3Z       0.046200
     30 H3           9.3210    56.1650    90.3870 h1         1 N3Z       0.045700
     31 H4           8.8080    55.2910    88.9290 h1         1 N3Z       0.045700
     32 H5          10.0080    56.5960    88.8050 h1         1 N3Z       0.045700
     33 H6          10.4210    50.4830    85.6870 hc         1 N3Z       0.060033
     34 H7           8.6510    50.1070    85.8070 hc         1 N3Z       0.060033
     35 H8           9.2440    50.7190    84.3280 hc         1 N3Z       0.060033
     36 H9           9.5440    60.7970    89.4210 h1         1 N3Z       0.035367
     37 H10          8.1640    59.7560    89.8190 h1         1 N3Z       0.035367
     38 H11          9.7670    59.0420    89.4670 h1         1 N3Z       0.035367
     39 H12          7.9910    61.4290    83.5960 h1         1 N3Z       0.041033
     40 H13          8.0070    59.7000    83.1910 h1         1 N3Z       0.041033
     41 H14          6.5030    60.4740    83.7610 h1         1 N3Z       0.041033
     42 H15          6.5090    58.1290    84.1630 ha         1 N3Z       0.119000
     43 H16          3.3850    52.1160    91.1260 h1         1 N3Z       0.065700
     44 H17          4.9660    51.9470    91.9340 h1         1 N3Z       0.065700
     45 H18          6.2460    51.8570    87.4110 ha         1 N3Z       0.127000
     46 H19          5.5740    56.2930    89.6230 ha         1 N3Z       0.129000
     47 H20          7.2320    51.9920    85.0250 hn         1 N3Z       0.311500
     48 H21          8.1320    54.6510    85.9220 h1         1 N3Z       0.089700
     49 H22          5.1910    56.2050    84.1510 hc         1 N3Z       0.054700
     50 H23          4.7100    55.5110    85.6780 hc         1 N3Z       0.054700
     51 H24          3.7990    54.6040    92.8130 ha         1 N3Z       0.172000
     52 H25          4.5050    55.9110    91.7050 ha         1 N3Z       0.172000
     53 O3           8.0410    57.2390    89.1300 os         1 N3Z      -0.361100
     54 N            7.8190    52.6410    85.5360 ns         1 N3Z      -0.510900
@<TRIPOS>BOND
     1     1    23 1   
     2     1    24 1   
     3     1    28 1   
     4     1    29 1   
     5     2    30 1   
     6     2    31 1   
     7     2    32 1   
     8     2    53 1   
     9     3    22 1   
    10     3    33 1   
    11     3    34 1   
    12     3    35 1   
    13     4    20 1   
    14     4    36 1   
    15     4    37 1   
    16     4    38 1   
    17     5    15 ar  
    18     5    17 ar  
    19     5    18 1   
    20     6    10 ar  
    21     6    12 1   
    22     6    25 ar  
    23     7     9 ar  
    24     7    11 ar  
    25     7    19 1   
    26     8    19 1   
    27     8    39 1   
    28     8    40 1   
    29     8    41 1   
    30     9    20 1   
    31     9    25 ar  
    32    10    11 ar  
    33    10    24 1   
    34    11    42 1   
    35    12    13 ar  
    36    12    17 ar  
    37    13    16 ar  
    38    13    23 1   
    39    14    18 1   
    40    14    27 1   
    41    14    43 1   
    42    14    44 1   
    43    15    16 ar  
    44    15    27 1   
    45    16    45 1   
    46    17    46 1   
    47    18    26 2   
    48    21    22 2   
    49    22    54 1   
    50    23    48 1   
    51    23    54 1   
    52    24    49 1   
    53    24    50 1   
    54    25    53 1   
    55    26    51 1   
    56    26    52 1   
    57    47    54 1   
@<TRIPOS>SUBSTRUCTURE
     1 N3Z         1 TEMP              0 ****  ****    0 ROOT
