@<TRIPOS>MOLECULE
N3Z
   54    57     1     0     0
SMALL
bcc


@<TRIPOS>ATOM
      1 C19          6.3120    54.5510    84.7890 c3         1 N3Z      -0.076400
      2 C17          9.3480    56.1190    89.1070 c3         1 N3Z       0.123700
      3 C22          9.2430    50.8160    85.4580 c3         1 N3Z      -0.180100
      4 C15          8.5470    60.3050    88.7420 c3         1 N3Z       0.127700
      5 C8           5.3790    54.1090    89.7290 ca         1 N3Z      -0.152800
      6 C9           6.9090    56.4780    87.2410 cp         1 N3Z      -0.084000
      7 C12          7.7470    58.8500    85.9950 ca         1 N3Z       0.137100
      8 C13          7.7570    60.3890    84.1950 c3         1 N3Z       0.121700
      9 C14          8.2240    58.5200    87.2710 ca         1 N3Z       0.047100
     10 C10          6.4770    56.7930    85.9500 ca         1 N3Z      -0.029300
     11 C11          6.8930    57.9710    85.3380 ca         1 N3Z      -0.217000
     12 C6           6.4440    55.2360    87.8970 cp         1 N3Z      -0.066000
     13 C5           6.5870    54.0040    87.2340 ca         1 N3Z      -0.038300
     14 C2           4.4950    52.3220    90.9750 c5         1 N3Z       0.158600
     15 C3           5.5240    52.9030    89.0520 ca         1 N3Z       0.142100
     16 C4           6.1220    52.8260    87.8080 ca         1 N3Z      -0.154000
     17 C7           5.8380    55.2800    89.1510 ca         1 N3Z      -0.030000
     18 C1           4.7120    53.8190    90.9910 ce         1 N3Z      -0.084400
     19 O1           8.1870    60.0140    85.4890 os         1 N3Z      -0.299900
     20 O2           9.1240    59.3280    87.8880 os         1 N3Z      -0.311900
     21 O4           9.5940    52.7980    86.7540 o          1 N3Z      -0.598100
     22 C21          8.8900    52.1950    85.9570 c          1 N3Z       0.668100
     23 C20          7.2490    54.0030    85.8720 c3         1 N3Z       0.152000
     24 C18          5.5820    55.8290    85.2210 c3         1 N3Z      -0.029100
     25 C16          7.7970    57.3470    87.8820 ca         1 N3Z       0.137100
     26 C            4.3550    54.6540    91.9640 c2         1 N3Z      -0.196000
     27 O            5.0280    51.8510    89.7280 os         1 N3Z      -0.305900
     28 H1           5.5660    53.7970    84.5260 hc         1 N3Z       0.046200
     29 H2           6.9070    54.7440    83.8930 hc         1 N3Z       0.046200
     30 H3           9.6130    55.9190    90.1440 h1         1 N3Z       0.045700
     31 H4           9.0600    55.1780    88.6300 h1         1 N3Z       0.045700
     32 H5          10.2230    56.5210    88.5890 h1         1 N3Z       0.045700
     33 H6          10.2800    50.8020    85.1270 hc         1 N3Z       0.060033
     34 H7           9.1530    50.1040    86.2790 hc         1 N3Z       0.060033
     35 H8           8.6110    50.4750    84.6410 hc         1 N3Z       0.060033
     36 H9           9.3660    60.8610    89.1950 h1         1 N3Z       0.035367
     37 H10          7.9140    61.0040    88.1890 h1         1 N3Z       0.035367
     38 H11          7.9520    59.8480    89.5360 h1         1 N3Z       0.035367
     39 H12          8.2140    61.3520    83.9840 h1         1 N3Z       0.041033
     40 H13          8.0790    59.6720    83.4350 h1         1 N3Z       0.041033
     41 H14          6.6700    60.4950    84.1410 h1         1 N3Z       0.041033
     42 H15          6.5310    58.1900    84.3420 ha         1 N3Z       0.137000
     43 H16          3.4370    52.0540    91.0290 h1         1 N3Z       0.065700
     44 H17          5.0170    51.8190    91.7920 h1         1 N3Z       0.065700
     45 H18          6.2330    51.8750    87.3040 ha         1 N3Z       0.145000
     46 H19          5.7120    56.2270    89.6590 ha         1 N3Z       0.147000
     47 H20          7.1850    52.1540    84.8450 hn         1 N3Z       0.311500
     48 H21          8.1110    54.6730    85.9300 h1         1 N3Z       0.089700
     49 H22          5.1590    56.3050    84.3360 hc         1 N3Z       0.054700
     50 H23          4.7390    55.5590    85.8610 hc         1 N3Z       0.054700
     51 H24          3.8570    54.3040    92.8580 ha         1 N3Z       0.122000
     52 H25          4.5490    55.7170    91.8960 ha         1 N3Z       0.122000
     53 O3           8.2780    57.0540    89.1180 os         1 N3Z      -0.337900
     54 N            7.7440    52.7100    85.4730 ns         1 N3Z      -0.577900
@<TRIPOS>BOND
     1     1    23 1   
     2     1    24 1   
     3     1    28 1   
     4     1    29 1   
     5     2    30 1   
     6     2    31 1   
     7     2    32 1   
     8     2    53 1   
     9     3    22 1   
    10     3    33 1   
    11     3    34 1   
    12     3    35 1   
    13     4    20 1   
    14     4    36 1   
    15     4    37 1   
    16     4    38 1   
    17     5    15 ar  
    18     5    17 ar  
    19     5    18 1   
    20     6    10 ar  
    21     6    12 1   
    22     6    25 ar  
    23     7     9 ar  
    24     7    11 ar  
    25     7    19 1   
    26     8    19 1   
    27     8    39 1   
    28     8    40 1   
    29     8    41 1   
    30     9    20 1   
    31     9    25 ar  
    32    10    11 ar  
    33    10    24 1   
    34    11    42 1   
    35    12    13 ar  
    36    12    17 ar  
    37    13    16 ar  
    38    13    23 1   
    39    14    18 1   
    40    14    27 1   
    41    14    43 1   
    42    14    44 1   
    43    15    16 ar  
    44    15    27 1   
    45    16    45 1   
    46    17    46 1   
    47    18    26 2   
    48    21    22 2   
    49    22    54 1   
    50    23    48 1   
    51    23    54 1   
    52    24    49 1   
    53    24    50 1   
    54    25    53 1   
    55    26    51 1   
    56    26    52 1   
    57    47    54 1   
@<TRIPOS>SUBSTRUCTURE
     1 N3Z         1 TEMP              0 ****  ****    0 ROOT
