@<TRIPOS>MOLECULE
N40
   78    79     1     0     0
SMALL
No Charge or Current Charge


@<TRIPOS>ATOM
      1 C03         -0.8710    -1.5150    -0.1820 c3         1 N40      -0.347400
      2 C04         -2.2430    -2.0170     0.3290 c3         1 N40      -0.041400
      3 C05         -3.3240    -0.9230     0.2460 c3         1 N40      -0.071400
      4 C06         -4.7180    -1.3930     0.7120 c3         1 N40      -0.076400
      5 C07         -5.7840    -0.2810     0.6120 c3         1 N40      -0.074400
      6 C08         -7.1830    -0.7390     1.0780 c3         1 N40      -0.076400
      7 C09         -8.2480     0.3750     0.9760 c3         1 N40      -0.074400
      8 C10         -9.6440    -0.0800     1.4400 c3         1 N40      -0.088100
      9 C12          2.2900    -0.7410    -0.2940 c3         1 N40       0.134500
     10 C13          3.8080    -0.6990    -0.6150 c3         1 N40      -0.061400
     11 C14          4.6940    -1.8010     0.0530 c6         1 N40      -0.056700
     12 C15          4.6610    -1.7380     1.6090 c6         1 N40      -0.073900
     13 C16          5.5650    -2.8230     2.2450 c6         1 N40      -0.071900
     14 C17          7.0190    -2.7210     1.7250 c6         1 N40      -0.075400
     15 C18          7.0610    -2.7950     0.1800 c6         1 N40      -0.071900
     16 C19          6.1610    -1.7060    -0.4560 c6         1 N40      -0.073900
     17 C20          1.5890     0.5090    -0.9270 c          1 N40       0.559100
     18 C22          0.9290     2.9150    -0.4840 c3         1 N40       0.108700
     19 C23         -0.5270     3.1860    -0.0200 c3         1 N40      -0.069400
     20 C24         -1.6200     2.3380    -0.7250 c5         1 N40      -0.154700
     21 C25         -3.0410     2.6030    -0.2060 c          1 N40       0.562000
     22 C27         -3.2000     2.0420    -2.5150 c5         1 N40       0.099000
     23 C28         -1.7690     2.5860    -2.2530 c5         1 N40      -0.094400
     24 C30          1.9240     3.9900     0.0320 c3         1 N40       0.142600
     25 N11          1.7320    -2.0380    -0.7870 n7         1 N40      -0.858300
     26 N21          1.3900     1.5780    -0.0780 ns         1 N40      -0.490900
     27 N26         -3.8700     2.4440    -1.2810 ns         1 N40      -0.514900
     28 O01          0.8030    -2.9050     1.3790 o          1 N40      -0.527500
     29 O29         -3.4050     3.0900     0.8520 o          1 N40      -0.552000
     30 O32          1.2210     0.5270    -2.0950 o          1 N40      -0.616100
     31 O33          0.0960    -3.9190    -0.8370 o          1 N40      -0.527500
     32 S02          0.4290    -2.7460    -0.0280 s6         1 N40       1.184100
     33 H1          -0.9330    -1.2440    -1.2420 h1         1 N40       0.091200
     34 H2          -0.5450    -0.6520     0.4070 h1         1 N40       0.091200
     35 H3          -2.5600    -2.8870    -0.2620 hc         1 N40       0.059700
     36 H4          -2.1500    -2.3520     1.3710 hc         1 N40       0.059700
     37 H5          -3.0130    -0.0700     0.8610 hc         1 N40       0.037200
     38 H6          -3.3940    -0.5690    -0.7890 hc         1 N40       0.037200
     39 H7          -5.0320    -2.2510     0.1040 hc         1 N40       0.042200
     40 H8          -4.6530    -1.7410     1.7510 hc         1 N40       0.042200
     41 H9          -5.4660     0.5780     1.2160 hc         1 N40       0.034700
     42 H10         -5.8460     0.0650    -0.4280 hc         1 N40       0.034700
     43 H11         -7.5010    -1.5970     0.4730 hc         1 N40       0.039200
     44 H12         -7.1210    -1.0840     2.1180 hc         1 N40       0.039200
     45 H13         -7.9340     1.2350     1.5800 hc         1 N40       0.035700
     46 H14         -8.3130     0.7220    -0.0630 hc         1 N40       0.035700
     47 H15        -10.3640     0.7420     1.3500 hc         1 N40       0.032033
     48 H16        -10.0020    -0.9180     0.8310 hc         1 N40       0.032033
     49 H17         -9.6190    -0.4000     2.4890 hc         1 N40       0.032033
     50 H18          2.1750    -0.6580     0.7950 h1         1 N40       0.088700
     51 H19          3.9260    -0.7520    -1.7050 hc         1 N40       0.049700
     52 H20          4.1910     0.2880    -0.3240 hc         1 N40       0.049700
     53 H21          4.2870    -2.7720    -0.2650 hc         1 N40       0.065700
     54 H22          4.9830    -0.7440     1.9500 hc         1 N40       0.038950
     55 H23          3.6360    -1.8780     1.9770 hc         1 N40       0.038950
     56 H24          5.5540    -2.7230     3.3390 hc         1 N40       0.041450
     57 H25          5.1610    -3.8190     2.0190 hc         1 N40       0.041450
     58 H26          7.4690    -1.7780     2.0630 hc         1 N40       0.037700
     59 H27          7.6270    -3.5300     2.1540 hc         1 N40       0.037700
     60 H28          8.0950    -2.6750    -0.1710 hc         1 N40       0.041450
     61 H29          6.7310    -3.7890    -0.1530 hc         1 N40       0.041450
     62 H30          6.1860    -1.8080    -1.5500 hc         1 N40       0.038950
     63 H31          6.5720    -0.7130    -0.2270 hc         1 N40       0.038950
     64 H32          0.9480     2.9780    -1.5810 h1         1 N40       0.082700
     65 H33         -0.5800     3.0250     1.0640 hc         1 N40       0.070200
     66 H34         -0.7500     4.2490    -0.1750 hc         1 N40       0.070200
     67 H35         -1.4150     1.2750    -0.5760 hc         1 N40       0.073700
     68 H36         -3.6510     2.4880    -3.4110 h1         1 N40       0.046200
     69 H37         -3.2000     0.9500    -2.6340 h1         1 N40       0.046200
     70 H38         -1.7130     3.6550    -2.4910 hc         1 N40       0.061700
     71 H39         -1.0090     2.0740    -2.8530 hc         1 N40       0.061700
     72 H40          2.8880     3.8470    -0.4760 h1         1 N40       0.032200
     73 H41          1.5550     4.9880    -0.2420 h1         1 N40       0.032200
     74 H42          1.3700    -1.8980    -1.7300 hn         1 N40       0.502000
     75 H43          1.7280     1.4840     0.8740 hn         1 N40       0.330500
     76 H44         -4.8540     2.6630    -1.1790 hn         1 N40       0.329500
     77 H45          2.7250     4.6040     1.7210 ho         1 N40       0.451000
     78 O31          2.1030     3.8900     1.4560 oh         1 N40      -0.665000
@<TRIPOS>BOND
     1     1     2 1   
     2     1    32 1   
     3     1    33 1   
     4     1    34 1   
     5     2     3 1   
     6     2    35 1   
     7     2    36 1   
     8     3     4 1   
     9     3    37 1   
    10     3    38 1   
    11     4     5 1   
    12     4    39 1   
    13     4    40 1   
    14     5     6 1   
    15     5    41 1   
    16     5    42 1   
    17     6     7 1   
    18     6    43 1   
    19     6    44 1   
    20     7     8 1   
    21     7    45 1   
    22     7    46 1   
    23     8    47 1   
    24     8    48 1   
    25     8    49 1   
    26     9    10 1   
    27     9    17 1   
    28     9    25 1   
    29     9    50 1   
    30    10    11 1   
    31    10    51 1   
    32    10    52 1   
    33    11    12 1   
    34    11    16 1   
    35    11    53 1   
    36    12    13 1   
    37    12    54 1   
    38    12    55 1   
    39    13    14 1   
    40    13    56 1   
    41    13    57 1   
    42    14    15 1   
    43    14    58 1   
    44    14    59 1   
    45    15    16 1   
    46    15    60 1   
    47    15    61 1   
    48    16    62 1   
    49    16    63 1   
    50    17    26 1   
    51    17    30 2   
    52    18    19 1   
    53    18    24 1   
    54    18    26 1   
    55    18    64 1   
    56    19    20 1   
    57    19    65 1   
    58    19    66 1   
    59    20    21 1   
    60    20    23 1   
    61    20    67 1   
    62    21    27 1   
    63    21    29 2   
    64    22    23 1   
    65    22    27 1   
    66    22    68 1   
    67    22    69 1   
    68    23    70 1   
    69    23    71 1   
    70    24    72 1   
    71    24    73 1   
    72    24    78 1   
    73    25    32 1   
    74    25    74 1   
    75    26    75 1   
    76    27    76 1   
    77    28    32 2   
    78    31    32 2   
    79    77    78 1   
@<TRIPOS>SUBSTRUCTURE
     1 N40         1 TEMP              0 ****  ****    0 ROOT
