@<TRIPOS>MOLECULE
N40
   78    79     1     0     0
SMALL
abcg2


@<TRIPOS>ATOM
      1 C03         -0.9610    -1.5600    -0.5620 c3         1 N40      -0.347400
      2 C04         -2.2540    -2.1050     0.0280 c3         1 N40      -0.041400
      3 C05         -3.3650    -1.0660    -0.0820 c3         1 N40      -0.071400
      4 C06         -4.6850    -1.5380     0.5110 c3         1 N40      -0.076400
      5 C07         -5.7720    -0.4710     0.4540 c3         1 N40      -0.074400
      6 C08         -7.1040    -0.9450     1.0210 c3         1 N40      -0.076400
      7 C09         -8.1900     0.1230     0.9850 c3         1 N40      -0.074400
      8 C10         -9.5210    -0.3680     1.5380 c3         1 N40      -0.088100
      9 C12          2.2320    -0.6840    -0.3960 c3         1 N40       0.134500
     10 C13          3.7560    -0.5980    -0.5370 c3         1 N40      -0.061400
     11 C14          4.5320    -1.7220     0.1460 c6         1 N40      -0.056700
     12 C15          4.2850    -1.7740     1.6540 c6         1 N40      -0.073900
     13 C16          5.1320    -2.8440     2.3380 c6         1 N40      -0.071900
     14 C17          6.6150    -2.6650     2.0380 c6         1 N40      -0.075400
     15 C18          6.8620    -2.6400     0.5340 c6         1 N40      -0.071900
     16 C19          6.0250    -1.5610    -0.1450 c6         1 N40      -0.073900
     17 C20          1.6080     0.5190    -1.1070 c          1 N40       0.559100
     18 C22          1.0820     2.9200    -0.8170 c3         1 N40       0.108700
     19 C23         -0.1740     3.4280    -0.1090 c3         1 N40      -0.069400
     20 C24         -1.3950     2.5590    -0.3640 c5         1 N40      -0.154700
     21 C25         -2.6340     3.0520     0.3690 c          1 N40       0.562000
     22 C27         -3.3710     2.3340    -1.7490 c5         1 N40       0.099000
     23 C28         -1.8470     2.4750    -1.8230 c5         1 N40      -0.094400
     24 C30          2.2500     3.8860    -0.6790 c3         1 N40       0.142600
     25 N11          1.7500    -1.9350    -0.9560 n7         1 N40      -0.858300
     26 N21          1.4620     1.6050    -0.3350 ns         1 N40      -0.490900
     27 N26         -3.6820     2.9030    -0.4560 ns         1 N40      -0.514900
     28 O01          0.6390    -2.7980     1.1140 o          1 N40      -0.527500
     29 O29         -2.6700     3.4880     1.5080 o          1 N40      -0.552000
     30 O32          1.3130     0.4640    -2.2920 o          1 N40      -0.616100
     31 O33          0.2010    -3.8710    -1.1130 o          1 N40      -0.527500
     32 S02          0.4200    -2.6710    -0.3210 s6         1 N40       1.184100
     33 H1          -1.0430    -1.3830    -1.6350 h1         1 N40       0.091200
     34 H2          -0.6860    -0.6220    -0.0760 h1         1 N40       0.091200
     35 H3          -2.5470    -3.0190    -0.4930 hc         1 N40       0.059700
     36 H4          -2.1010    -2.3620     1.0780 hc         1 N40       0.059700
     37 H5          -3.0470    -0.1460     0.4230 hc         1 N40       0.037200
     38 H6          -3.5140    -0.8060    -1.1350 hc         1 N40       0.037200
     39 H7          -5.0210    -2.4340    -0.0210 hc         1 N40       0.042200
     40 H8          -4.5290    -1.8400     1.5520 hc         1 N40       0.042200
     41 H9          -5.4370     0.4160     1.0020 hc         1 N40       0.034700
     42 H10         -5.9150    -0.1510    -0.5840 hc         1 N40       0.034700
     43 H11         -7.4420    -1.8260     0.4630 hc         1 N40       0.039200
     44 H12         -6.9620    -1.2800     2.0540 hc         1 N40       0.039200
     45 H13         -7.8560     0.9980     1.5510 hc         1 N40       0.035700
     46 H14         -8.3280     0.4640    -0.0460 hc         1 N40       0.035700
     47 H15        -10.2850     0.4090     1.4940 hc         1 N40       0.032033
     48 H16         -9.8890    -1.2250     0.9720 hc         1 N40       0.032033
     49 H17         -9.4270    -0.6790     2.5800 hc         1 N40       0.032033
     50 H18          1.9700    -0.6600     0.6640 h1         1 N40       0.088700
     51 H19          4.0070    -0.5800    -1.6030 hc         1 N40       0.049700
     52 H20          4.0810     0.3640    -0.1280 hc         1 N40       0.049700
     53 H21          4.2070    -2.6770    -0.2860 hc         1 N40       0.065700
     54 H22          4.5190    -0.7930     2.0870 hc         1 N40       0.038950
     55 H23          3.2310    -1.9700     1.8630 hc         1 N40       0.038950
     56 H24          4.9550    -2.8240     3.4160 hc         1 N40       0.041450
     57 H25          4.8110    -3.8320     1.9900 hc         1 N40       0.041450
     58 H26          6.9640    -1.7250     2.4810 hc         1 N40       0.037700
     59 H27          7.1970    -3.4640     2.5050 hc         1 N40       0.037700
     60 H28          7.9220    -2.4800     0.3220 hc         1 N40       0.041450
     61 H29          6.6030    -3.6160     0.1110 hc         1 N40       0.041450
     62 H30          6.1940    -1.5760    -1.2260 hc         1 N40       0.038950
     63 H31          6.3550    -0.5750     0.2060 hc         1 N40       0.038950
     64 H32          0.8790     2.8270    -1.8850 h1         1 N40       0.082700
     65 H33          0.0050     3.5010     0.9660 hc         1 N40       0.070200
     66 H34         -0.3730     4.4440    -0.4660 hc         1 N40       0.070200
     67 H35         -1.1980     1.5530     0.0290 hc         1 N40       0.073700
     68 H36         -3.8780     2.8760    -2.5470 h1         1 N40       0.046200
     69 H37         -3.6870     1.2900    -1.8060 h1         1 N40       0.046200
     70 H38         -1.5850     3.4010    -2.3400 hc         1 N40       0.061700
     71 H39         -1.3890     1.6510    -2.3670 hc         1 N40       0.061700
     72 H40          3.0940     3.5040    -1.2660 h1         1 N40       0.032200
     73 H41          1.9570     4.8480    -1.1190 h1         1 N40       0.032200
     74 H42          1.7650    -1.9670    -1.9710 hn         1 N40       0.502000
     75 H43          1.7440     1.5400     0.6320 hn         1 N40       0.330500
     76 H44         -4.6270     3.0810    -0.1550 hn         1 N40       0.329500
     77 H45          3.4000     4.5040     0.7560 ho         1 N40       0.451000
     78 O31          2.5790     4.0090     0.6850 oh         1 N40      -0.665000
@<TRIPOS>BOND
     1     1     2 1   
     2     1    32 1   
     3     1    33 1   
     4     1    34 1   
     5     2     3 1   
     6     2    35 1   
     7     2    36 1   
     8     3     4 1   
     9     3    37 1   
    10     3    38 1   
    11     4     5 1   
    12     4    39 1   
    13     4    40 1   
    14     5     6 1   
    15     5    41 1   
    16     5    42 1   
    17     6     7 1   
    18     6    43 1   
    19     6    44 1   
    20     7     8 1   
    21     7    45 1   
    22     7    46 1   
    23     8    47 1   
    24     8    48 1   
    25     8    49 1   
    26     9    10 1   
    27     9    17 1   
    28     9    25 1   
    29     9    50 1   
    30    10    11 1   
    31    10    51 1   
    32    10    52 1   
    33    11    12 1   
    34    11    16 1   
    35    11    53 1   
    36    12    13 1   
    37    12    54 1   
    38    12    55 1   
    39    13    14 1   
    40    13    56 1   
    41    13    57 1   
    42    14    15 1   
    43    14    58 1   
    44    14    59 1   
    45    15    16 1   
    46    15    60 1   
    47    15    61 1   
    48    16    62 1   
    49    16    63 1   
    50    17    26 1   
    51    17    30 2   
    52    18    19 1   
    53    18    24 1   
    54    18    26 1   
    55    18    64 1   
    56    19    20 1   
    57    19    65 1   
    58    19    66 1   
    59    20    21 1   
    60    20    23 1   
    61    20    67 1   
    62    21    27 1   
    63    21    29 2   
    64    22    23 1   
    65    22    27 1   
    66    22    68 1   
    67    22    69 1   
    68    23    70 1   
    69    23    71 1   
    70    24    72 1   
    71    24    73 1   
    72    24    78 1   
    73    25    32 1   
    74    25    74 1   
    75    26    75 1   
    76    27    76 1   
    77    28    32 2   
    78    31    32 2   
    79    77    78 1   
@<TRIPOS>SUBSTRUCTURE
     1 N40         1 TEMP              0 ****  ****    0 ROOT
