@<TRIPOS>MOLECULE
N41
   49    52     1     0     0
SMALL
bcc


@<TRIPOS>ATOM
      1 C2          -1.9510     0.0060    -1.4180 ca         1 N41       0.967900
      2 C10          1.9020     0.4200    -0.3500 c3         1 N41       0.146400
      3 C11          3.4130     0.4960    -0.2690 c6         1 N41      -0.068700
      4 C12          3.8190     0.7210     1.1890 c6         1 N41      -0.071400
      5 C13          5.3340     0.7870     1.3470 c6         1 N41      -0.072900
      6 C14          6.0020    -0.4660     0.7920 c6         1 N41      -0.075400
      7 C15          5.6070    -0.6960    -0.6630 c6         1 N41      -0.072900
      8 C16          4.0910    -0.7570    -0.8260 c6         1 N41      -0.071400
      9 C19         -1.6070    -0.0980     3.0580 ca         1 N41      -0.056500
     10 C20         -2.7970    -0.2150     3.7710 ca         1 N41      -0.189600
     11 C21         -3.9870    -0.2660     3.0460 ca         1 N41      -0.056500
     12 C22         -3.9820    -0.2270     1.6690 ca         1 N41      -0.190500
     13 N25         -1.7250    -0.5500     5.9070 nt         1 N41      -0.672000
     14 N1          -0.6650     0.1380    -1.0810 nb         1 N41      -0.873000
     15 C6           0.2450     0.2300    -2.0310 ca         1 N41       0.789600
     16 O6           1.5190     0.3610    -1.7300 os         1 N41      -0.405100
     17 C5          -0.1430     0.1920    -3.3730 ca         1 N41      -0.224200
     18 N7           0.5290     0.2620    -4.5680 nc         1 N41      -0.509100
     19 N9          -1.6580     0.0440    -4.9300 na         1 N41      -0.367000
     20 C4          -1.5150     0.0550    -3.5810 ca         1 N41       0.483800
     21 N3          -2.4510    -0.0420    -2.6470 nb         1 N41      -0.801000
     22 N2          -2.8880    -0.0900    -0.4250 nu         1 N41      -0.733300
     23 C17         -2.7800    -0.1180     0.9520 ca         1 N41       0.210600
     24 C18         -1.5850    -0.0460     1.6740 ca         1 N41      -0.190500
     25 C8          -0.4070     0.1710    -5.4640 cd         1 N41       0.391700
     26 O24         -3.9130    -0.0240     5.8520 o          1 N41      -0.610100
     27 H101         1.4440     1.2980     0.1150 h1         1 N41       0.051200
     28 H102         1.5360    -0.4680     0.1740 h1         1 N41       0.051200
     29 H11          3.7510     1.3660    -0.8480 hc         1 N41       0.065700
     30 H121         3.3600     1.6400     1.5650 hc         1 N41       0.042700
     31 H122         3.4270    -0.0990     1.8040 hc         1 N41       0.042700
     32 H131         5.7140     1.6670     0.8170 hc         1 N41       0.041200
     33 H132         5.5920     0.9240     2.4000 hc         1 N41       0.041200
     34 H141         7.0880    -0.3880     0.8830 hc         1 N41       0.038700
     35 H142         5.6990    -1.3320     1.3900 hc         1 N41       0.038700
     36 H151         6.0030     0.1190    -1.2780 hc         1 N41       0.041200
     37 H152         6.0590    -1.6160    -1.0390 hc         1 N41       0.041200
     38 H161         3.7040    -1.6340    -0.2920 hc         1 N41       0.042700
     39 H162         3.8370    -0.8960    -1.8790 hc         1 N41       0.042700
     40 H19         -0.6570    -0.0200     3.5710 ha         1 N41       0.140000
     41 H21         -4.9330    -0.3490     3.5650 ha         1 N41       0.140000
     42 H22         -4.9210    -0.2810     1.1300 ha         1 N41       0.149500
     43 H251        -1.7300    -0.6150     6.9110 hn         1 N41       0.311500
     44 H252        -0.9080    -0.8940     5.4350 hn         1 N41       0.311500
     45 H9          -2.5200    -0.0410    -5.4470 hn         1 N41       0.319700
     46 H2          -3.8280    -0.1710    -0.7830 hn         1 N41       0.457800
     47 H18         -0.6440     0.0570     1.1610 ha         1 N41       0.149500
     48 H8          -0.2550     0.1870    -6.5320 h5         1 N41       0.068800
     49 C23         -2.8660    -0.2560     5.2590 c          1 N41       0.688700
@<TRIPOS>BOND
     1     1    14 ar  
     2     1    21 ar  
     3     1    22 1   
     4     2     3 1   
     5     2    16 1   
     6     2    27 1   
     7     2    28 1   
     8     3     4 1   
     9     3     8 1   
    10     3    29 1   
    11     4     5 1   
    12     4    30 1   
    13     4    31 1   
    14     5     6 1   
    15     5    32 1   
    16     5    33 1   
    17     6     7 1   
    18     6    34 1   
    19     6    35 1   
    20     7     8 1   
    21     7    36 1   
    22     7    37 1   
    23     8    38 1   
    24     8    39 1   
    25     9    10 ar  
    26     9    24 ar  
    27     9    40 1   
    28    10    11 ar  
    29    10    49 1   
    30    11    12 ar  
    31    11    41 1   
    32    12    23 ar  
    33    12    42 1   
    34    13    43 1   
    35    13    44 1   
    36    13    49 1   
    37    14    15 ar  
    38    15    16 1   
    39    15    17 ar  
    40    17    18 1   
    41    17    20 ar  
    42    18    25 2   
    43    19    20 1   
    44    19    25 1   
    45    19    45 1   
    46    20    21 ar  
    47    22    23 1   
    48    22    46 1   
    49    23    24 ar  
    50    24    47 1   
    51    25    48 1   
    52    26    49 2   
@<TRIPOS>SUBSTRUCTURE
     1 N41         1 TEMP              0 ****  ****    0 ROOT
