@<TRIPOS>MOLECULE
N41
   49    52     1     0     0
SMALL
No Charge or Current Charge


@<TRIPOS>ATOM
      1 C2          -2.0050    -0.0550    -1.3630 ca         1 N41       0.441900
      2 C10          1.9860     0.4030    -0.3040 c3         1 N41       0.169600
      3 C11          3.5340     0.5490    -0.2790 c6         1 N41      -0.068700
      4 C12          4.0450     0.8060     1.1670 c6         1 N41      -0.071400
      5 C13          5.5850     0.9640     1.2080 c6         1 N41      -0.072900
      6 C14          6.2910    -0.2680     0.5910 c6         1 N41      -0.075400
      7 C15          5.7930    -0.5300    -0.8510 c6         1 N41      -0.072900
      8 C16          4.2520    -0.6880    -0.8940 c6         1 N41      -0.071400
      9 C19         -1.9450    -0.7680     3.1430 ca         1 N41      -0.038500
     10 C20         -3.0420    -0.2250     3.8530 ca         1 N41      -0.189600
     11 C21         -4.1010     0.3500     3.1180 ca         1 N41      -0.038500
     12 C22         -4.0620     0.3870     1.7140 ca         1 N41      -0.172500
     13 N25         -2.0840    -0.8050     6.0440 nt         1 N41      -0.605000
     14 N1          -0.7260     0.1030    -0.9830 nb         1 N41      -0.347000
     15 C6           0.1980     0.1620    -1.9670 ca         1 N41       0.461300
     16 O6           1.5370     0.3140    -1.6690 os         1 N41      -0.428300
     17 C5          -0.2060     0.0700    -3.3210 ca         1 N41      -0.093600
     18 N7           0.5630     0.1080    -4.4810 nc         1 N41      -0.509100
     19 N9          -1.6700    -0.1370    -4.9480 na         1 N41      -0.417300
     20 C4          -1.5410    -0.0770    -3.5910 ca         1 N41       0.155500
     21 N3          -2.4690    -0.1380    -2.6230 nb         1 N41      -0.275000
     22 N2          -2.9800    -0.0860    -0.3820 nu         1 N41      -0.926900
     23 C17         -2.9660    -0.1360     1.0140 ca         1 N41       0.349000
     24 C18         -1.9150    -0.7260     1.7380 ca         1 N41      -0.172500
     25 C8          -0.3650    -0.0210    -5.4450 cd         1 N41       0.391700
     26 O24         -4.0530     0.2080     5.9880 o          1 N41      -0.610100
     27 H101         1.5370     1.2750     0.1900 h1         1 N41       0.051200
     28 H102         1.7010    -0.4960     0.2610 h1         1 N41       0.051200
     29 H11          3.7680     1.4330    -0.8890 hc         1 N41       0.065700
     30 H121         3.5740     1.7100     1.5770 hc         1 N41       0.042700
     31 H122         3.7440    -0.0250     1.8220 hc         1 N41       0.042700
     32 H131         5.8790     1.8710     0.6620 hc         1 N41       0.041200
     33 H132         5.9180     1.1020     2.2460 hc         1 N41       0.041200
     34 H141         7.3780    -0.1120     0.5870 hc         1 N41       0.038700
     35 H142         6.1040    -1.1530     1.2140 hc         1 N41       0.038700
     36 H151         6.0980     0.2990    -1.5050 hc         1 N41       0.041200
     37 H152         6.2710    -1.4340    -1.2520 hc         1 N41       0.041200
     38 H161         3.9610    -1.5970    -0.3510 hc         1 N41       0.042700
     39 H162         3.9340    -0.8330    -1.9360 hc         1 N41       0.042700
     40 H19         -1.1110    -1.2330     3.6620 ha         1 N41       0.122000
     41 H21         -4.9630     0.7720     3.6340 ha         1 N41       0.122000
     42 H22         -4.8890     0.8360     1.1710 ha         1 N41       0.131500
     43 H251        -2.1200    -0.8270     7.0520 hn         1 N41       0.311500
     44 H252        -1.2940    -1.1890     5.5510 hn         1 N41       0.311500
     45 H9          -2.5180    -0.2430    -5.4880 hn         1 N41       0.370000
     46 H2          -3.9130     0.0310    -0.7750 hn         1 N41       0.513000
     47 H18         -1.0740    -1.1730     1.2190 ha         1 N41       0.131500
     48 H8          -0.1690    -0.0390    -6.5110 h5         1 N41       0.068800
     49 C23         -3.1110    -0.2510     5.3640 c          1 N41       0.621700
@<TRIPOS>BOND
     1     1    14 ar  
     2     1    21 ar  
     3     1    22 1   
     4     2     3 1   
     5     2    16 1   
     6     2    27 1   
     7     2    28 1   
     8     3     4 1   
     9     3     8 1   
    10     3    29 1   
    11     4     5 1   
    12     4    30 1   
    13     4    31 1   
    14     5     6 1   
    15     5    32 1   
    16     5    33 1   
    17     6     7 1   
    18     6    34 1   
    19     6    35 1   
    20     7     8 1   
    21     7    36 1   
    22     7    37 1   
    23     8    38 1   
    24     8    39 1   
    25     9    10 ar  
    26     9    24 ar  
    27     9    40 1   
    28    10    11 ar  
    29    10    49 1   
    30    11    12 ar  
    31    11    41 1   
    32    12    23 ar  
    33    12    42 1   
    34    13    43 1   
    35    13    44 1   
    36    13    49 1   
    37    14    15 ar  
    38    15    16 1   
    39    15    17 ar  
    40    17    18 1   
    41    17    20 ar  
    42    18    25 2   
    43    19    20 1   
    44    19    25 1   
    45    19    45 1   
    46    20    21 ar  
    47    22    23 1   
    48    22    46 1   
    49    23    24 ar  
    50    24    47 1   
    51    25    48 1   
    52    26    49 2   
@<TRIPOS>SUBSTRUCTURE
     1 N41         1 TEMP              0 ****  ****    0 ROOT
