@<TRIPOS>MOLECULE
N42
   89    93     1     0     0
SMALL
No Charge or Current Charge


@<TRIPOS>ATOM
      1 CBA          8.8480    -4.5410    -3.0280 c2         1 N42      -0.232000
      2 CBB          8.5360    -3.6990    -2.0100 ce         1 N42      -0.301200
      3 CBK          7.2270    -2.9890    -1.8710 c          1 N42       0.611300
      4 OAH          6.2930    -3.1960    -2.6360 o          1 N42      -0.593100
      5 NBF          7.2040    -2.0660    -0.8390 ns         1 N42      -0.155000
      6 CBS          6.1830    -1.2170    -0.3330 ca         1 N42       0.069000
      7 CAV          4.8210    -1.4330    -0.6360 ca         1 N42      -0.214000
      8 CBV          6.5420    -0.1290     0.5030 ca         1 N42      -0.251600
      9 CBM          7.9870     0.1270     0.8850 c          1 N42       0.636700
     10 OAJ          8.7420    -0.8030     1.1390 o          1 N42      -0.636100
     11 NBZ          8.4100     1.4660     1.0490 n          1 N42      -0.403800
     12 CBC          9.7280     1.7920     1.6740 c6         1 N42       0.059500
     13 CAY         10.7560     2.2870     0.6250 c6         1 N42       0.130600
     14 OBI         10.2040     3.3970    -0.1150 os         1 N42      -0.445000
     15 CAZ          8.9910     3.0580    -0.8230 c6         1 N42       0.130600
     16 CBD          7.9040     2.5690     0.1730 c6         1 N42       0.059500
     17 CAU          5.5280     0.7080     1.0190 ca         1 N42      -0.023000
     18 CAO          4.1840     0.4820     0.6970 ca         1 N42      -0.196000
     19 CBO          3.8260    -0.5950    -0.1220 ca         1 N42       0.383000
     20 NBH          2.4920    -0.8280    -0.4630 nu         1 N42      -0.836000
     21 CBU          1.2830    -0.4820     0.1550 cc         1 N42       0.009800
     22 CAW          0.2240    -0.0550    -0.6210 cd         1 N42      -0.126000
     23 CBX          1.1550    -0.5910     1.6580 c          1 N42       0.539200
     24 OAK          2.0510    -0.9930     2.3970 o          1 N42      -0.532000
     25 NCA         -0.1030    -0.2120     2.1730 n          1 N42      -0.267000
     26 CAB         -0.3000    -0.2930     3.6410 c3         1 N42       0.076300
     27 CAX         -1.1410     0.2210     1.3490 cc         1 N42      -0.033400
     28 CBQ         -1.0350     0.3340    -0.0270 cd         1 N42      -0.123200
     29 CBW         -2.1780     0.7520    -0.8820 ca         1 N42      -0.019800
     30 CBN         -3.5420     0.4090    -0.6250 ca         1 N42      -0.092300
     31 CAA         -3.9290    -0.6000     0.4680 c3         1 N42      -0.050800
     32 CAR         -1.8800     1.5550    -2.0030 ca         1 N42      -0.110000
     33 CAM         -2.8940     2.0600    -2.8240 ca         1 N42      -0.098000
     34 CAN         -4.2320     1.7670    -2.5450 ca         1 N42      -0.097000
     35 CBR         -4.5700     0.9340    -1.4590 ca         1 N42      -0.035000
     36 NBG         -5.9300     0.6280    -1.1580 ns         1 N42      -0.165000
     37 CBL         -7.0970     0.6990    -1.9110 c          1 N42       0.621700
     38 OAI         -7.1130     1.0230    -3.0940 o          1 N42      -0.579100
     39 CBP         -8.3760     0.3260    -1.1800 ca         1 N42      -0.158600
     40 CAP         -9.6070     0.3590    -1.8680 ca         1 N42      -0.071000
     41 CAS        -10.8090     0.0190    -1.2230 ca         1 N42      -0.118500
     42 CBT        -10.8240    -0.3660     0.1380 ca         1 N42      -0.038300
     43 CCB        -12.1280    -0.7480     0.8910 c3         1 N42      -0.004700
     44 CAD        -12.0090    -2.2060     1.4130 c3         1 N42      -0.083433
     45 CAE        -12.3270     0.2150     2.0930 c3         1 N42      -0.083433
     46 CAC        -13.3960    -0.6640    -0.0040 c3         1 N42      -0.083433
     47 CAT         -9.5890    -0.3950     0.8230 ca         1 N42      -0.118500
     48 CAQ         -8.3850    -0.0570     0.1810 ca         1 N42      -0.071000
     49 H1           9.8250    -5.0240    -3.0940 ha         1 N42       0.176000
     50 H2           8.1390    -4.7740    -3.8250 ha         1 N42       0.176000
     51 H4           9.2760    -3.4790    -1.2410 ha         1 N42       0.186000
     52 H6           8.0780    -1.9880    -0.3320 hn         1 N42       0.185000
     53 H7           4.5170    -2.2680    -1.2550 ha         1 N42       0.144000
     54 H8           9.5780     2.5810     2.4250 h1         1 N42       0.067200
     55 H9          10.1380     0.9220     2.2060 h1         1 N42       0.067200
     56 H10         11.6790     2.6100     1.1270 h1         1 N42       0.054200
     57 H11         11.0090     1.4730    -0.0700 h1         1 N42       0.054200
     58 H12          8.6310     3.9430    -1.3670 h1         1 N42       0.054200
     59 H13          9.2090     2.2700    -1.5580 h1         1 N42       0.054200
     60 H14          7.0320     2.2450    -0.4110 h1         1 N42       0.067200
     61 H15          7.5830     3.4110     0.8030 h1         1 N42       0.067200
     62 H16          5.7770     1.5330     1.6840 ha         1 N42       0.113000
     63 H17          3.4190     1.1440     1.0910 ha         1 N42       0.121000
     64 H18          2.3860    -1.3120    -1.3570 hn         1 N42       0.500000
     65 H19          0.3450    -0.0170    -1.6990 ha         1 N42       0.196000
     66 H20          0.4270     0.3550     4.1470 h1         1 N42       0.056367
     67 H21         -1.3110     0.0280     3.9200 h1         1 N42       0.056367
     68 H22         -0.1540    -1.3270     3.9770 h1         1 N42       0.056367
     69 H23         -2.0210     0.4990     1.9170 h4         1 N42       0.204000
     70 H24         -4.2010    -0.0930     1.4020 hc         1 N42       0.043367
     71 H25         -4.7790    -1.2250     0.1730 hc         1 N42       0.043367
     72 H26         -3.1220    -1.3110     0.6790 hc         1 N42       0.043367
     73 H27         -0.8540     1.8410    -2.2180 ha         1 N42       0.117000
     74 H28         -2.6430     2.7020    -3.6660 ha         1 N42       0.120000
     75 H29         -4.9950     2.2060    -3.1810 ha         1 N42       0.134000
     76 H30         -6.0690     0.3010    -0.2130 hn         1 N42       0.155000
     77 H31         -9.6420     0.6490    -2.9160 ha         1 N42       0.120000
     78 H32        -11.7210     0.0650    -1.8100 ha         1 N42       0.117000
     79 H33        -11.1860    -2.3150     2.1280 hc         1 N42       0.036922
     80 H34        -12.9300    -2.5170     1.9210 hc         1 N42       0.036922
     81 H35        -11.8290    -2.9000     0.5830 hc         1 N42       0.036922
     82 H36        -12.3760     1.2550     1.7500 hc         1 N42       0.036922
     83 H37        -13.2600    -0.0100     2.6250 hc         1 N42       0.036922
     84 H38        -11.5080     0.1360     2.8160 hc         1 N42       0.036922
     85 H39        -13.3230    -1.3470    -0.8600 hc         1 N42       0.036922
     86 H40        -14.2940    -0.9410     0.5620 hc         1 N42       0.036922
     87 H41        -13.5470     0.3550    -0.3820 hc         1 N42       0.036922
     88 H42         -9.5490    -0.6840     1.8700 ha         1 N42       0.117000
     89 H43         -7.4690    -0.0990     0.7650 ha         1 N42       0.120000
@<TRIPOS>BOND
     1     1     2 2   
     2     1    49 1   
     3     1    50 1   
     4     2     3 1   
     5     2    51 1   
     6     3     4 2   
     7     3     5 1   
     8     5     6 1   
     9     5    52 1   
    10     6     7 ar  
    11     6     8 ar  
    12     7    19 ar  
    13     7    53 1   
    14     8     9 1   
    15     8    17 ar  
    16     9    10 2   
    17     9    11 1   
    18    11    12 1   
    19    11    16 1   
    20    12    13 1   
    21    12    54 1   
    22    12    55 1   
    23    13    14 1   
    24    13    56 1   
    25    13    57 1   
    26    14    15 1   
    27    15    16 1   
    28    15    58 1   
    29    15    59 1   
    30    16    60 1   
    31    16    61 1   
    32    17    18 ar  
    33    17    62 1   
    34    18    19 ar  
    35    18    63 1   
    36    19    20 1   
    37    20    21 1   
    38    20    64 1   
    39    21    22 2   
    40    21    23 1   
    41    22    28 1   
    42    22    65 1   
    43    23    24 2   
    44    23    25 1   
    45    25    26 1   
    46    25    27 1   
    47    26    66 1   
    48    26    67 1   
    49    26    68 1   
    50    27    28 2   
    51    27    69 1   
    52    28    29 1   
    53    29    30 ar  
    54    29    32 ar  
    55    30    31 1   
    56    30    35 ar  
    57    31    70 1   
    58    31    71 1   
    59    31    72 1   
    60    32    33 ar  
    61    32    73 1   
    62    33    34 ar  
    63    33    74 1   
    64    34    35 ar  
    65    34    75 1   
    66    35    36 1   
    67    36    37 1   
    68    36    76 1   
    69    37    38 2   
    70    37    39 1   
    71    39    40 ar  
    72    39    48 ar  
    73    40    41 ar  
    74    40    77 1   
    75    41    42 ar  
    76    41    78 1   
    77    42    43 1   
    78    42    47 ar  
    79    43    44 1   
    80    43    45 1   
    81    43    46 1   
    82    44    79 1   
    83    44    80 1   
    84    44    81 1   
    85    45    82 1   
    86    45    83 1   
    87    45    84 1   
    88    46    85 1   
    89    46    86 1   
    90    46    87 1   
    91    47    48 ar  
    92    47    88 1   
    93    48    89 1   
@<TRIPOS>SUBSTRUCTURE
     1 N42         1 TEMP              0 ****  ****    0 ROOT
