@<TRIPOS>MOLECULE
N42
   89    93     1     0     0
SMALL
abcg2


@<TRIPOS>ATOM
      1 CBA          8.2640    -4.5960    -3.0620 c2         1 N42      -0.232000
      2 CBB          8.1510    -3.7310    -2.0610 ce         1 N42      -0.301200
      3 CBK          6.8700    -3.0340    -1.7760 c          1 N42       0.611300
      4 OAH          5.8600    -3.2090    -2.4360 o          1 N42      -0.593100
      5 NBF          6.9580    -2.1890    -0.7150 ns         1 N42      -0.155000
      6 CBS          5.9680    -1.3620    -0.1790 ca         1 N42       0.069000
      7 CAV          4.6210    -1.6800    -0.2720 ca         1 N42      -0.214000
      8 CBV          6.3640    -0.1870     0.4900 ca         1 N42      -0.251600
      9 CBM          7.8030     0.1560     0.6660 c          1 N42       0.636700
     10 OAJ          8.6030    -0.7110     1.0250 o          1 N42      -0.636100
     11 NBZ          8.1780     1.4340     0.4600 n          1 N42      -0.403800
     12 CBC          9.5210     1.8790     0.7990 c6         1 N42       0.059500
     13 CAY         10.2630     2.3150    -0.4530 c6         1 N42       0.130600
     14 OBI          9.5440     3.3070    -1.1510 os         1 N42      -0.445000
     15 CAZ          8.2660     2.8450    -1.5180 c6         1 N42       0.130600
     16 CBD          7.4400     2.4230    -0.3120 c6         1 N42       0.059500
     17 CAU          5.3770     0.6000     1.0770 ca         1 N42      -0.023000
     18 CAO          4.0360     0.2870     0.9970 ca         1 N42      -0.196000
     19 CBO          3.6440    -0.8650     0.3090 ca         1 N42       0.383000
     20 NBH          2.3280    -1.2320     0.1710 nu         1 N42      -0.836000
     21 CBU          1.2480    -0.5880     0.7750 cc         1 N42       0.009800
     22 CAW          0.2260    -0.0690     0.0410 cd         1 N42      -0.126000
     23 CBX          1.1950    -0.5910     2.2240 c          1 N42       0.539200
     24 OAK          2.0500    -1.0860     2.9500 o          1 N42      -0.532000
     25 NCA          0.0780     0.0220     2.7660 n          1 N42      -0.267000
     26 CAB         -0.0100     0.0580     4.2200 c3         1 N42       0.076300
     27 CAX         -0.9320     0.5280     2.0180 cc         1 N42      -0.033400
     28 CBQ         -0.9190     0.4900     0.6580 cd         1 N42      -0.123200
     29 CBW         -2.0110     1.0740    -0.1500 ca         1 N42      -0.019800
     30 CBN         -3.3530     0.7060     0.0250 ca         1 N42      -0.092300
     31 CAA         -3.7770    -0.3600     0.9950 c3         1 N42      -0.050800
     32 CAR         -1.6680     2.0050    -1.1310 ca         1 N42      -0.110000
     33 CAM         -2.6390     2.5990    -1.9170 ca         1 N42      -0.098000
     34 CAN         -3.9730     2.2800    -1.7260 ca         1 N42      -0.097000
     35 CBR         -4.3240     1.3390    -0.7650 ca         1 N42      -0.035000
     36 NBG         -5.6780     1.0110    -0.5520 ns         1 N42      -0.165000
     37 CBL         -6.5650     0.6740    -1.5220 c          1 N42       0.621700
     38 OAI         -6.2970     0.7070    -2.7100 o          1 N42      -0.579100
     39 CBP         -7.9150     0.2620    -1.0400 ca         1 N42      -0.158600
     40 CAP         -9.0000     0.4310    -1.8930 ca         1 N42      -0.071000
     41 CAS        -10.2760     0.0540    -1.5030 ca         1 N42      -0.118500
     42 CBT        -10.5150    -0.5270    -0.2590 ca         1 N42      -0.038300
     43 CCB        -11.9000    -0.9650     0.2000 c3         1 N42      -0.004700
     44 CAD        -11.8830    -2.4740     0.4800 c3         1 N42      -0.083433
     45 CAE        -12.2640    -0.2110     1.4860 c3         1 N42      -0.083433
     46 CAC        -12.9760    -0.6850    -0.8500 c3         1 N42      -0.083433
     47 CAT         -9.4130    -0.7130     0.5810 ca         1 N42      -0.118500
     48 CAQ         -8.1400    -0.3250     0.2050 ca         1 N42      -0.071000
     49 H1           9.1990    -5.1020    -3.2590 ha         1 N42       0.176000
     50 H2           7.4320    -4.8290    -3.7140 ha         1 N42       0.176000
     51 H4           9.0030    -3.5200    -1.4240 ha         1 N42       0.186000
     52 H6           7.8630    -2.0970    -0.2730 hn         1 N42       0.185000
     53 H7           4.3100    -2.5830    -0.7760 ha         1 N42       0.144000
     54 H8           9.4380     2.7210     1.4920 h1         1 N42       0.067200
     55 H9          10.0650     1.0840     1.3000 h1         1 N42       0.067200
     56 H10         11.2300     2.7410    -0.1800 h1         1 N42       0.054200
     57 H11         10.4460     1.4420    -1.0950 h1         1 N42       0.054200
     58 H12          7.7580     3.6580    -2.0390 h1         1 N42       0.054200
     59 H13          8.3460     1.9960    -2.2110 h1         1 N42       0.054200
     60 H14          6.4970     2.0150    -0.6640 h1         1 N42       0.067200
     61 H15          7.2160     3.2890     0.3180 h1         1 N42       0.067200
     62 H16          5.6660     1.4960     1.6130 ha         1 N42       0.113000
     63 H17          3.3080     0.9500     1.4440 ha         1 N42       0.121000
     64 H18          2.1130    -1.8440    -0.6000 hn         1 N42       0.500000
     65 H19          0.2840    -0.1020    -1.0420 ha         1 N42       0.196000
     66 H20          0.8480     0.5780     4.6400 h1         1 N42       0.056367
     67 H21         -0.9160     0.5830     4.5060 h1         1 N42       0.056367
     68 H22         -0.0430    -0.9510     4.6250 h1         1 N42       0.056367
     69 H23         -1.7480     0.9720     2.5710 h4         1 N42       0.204000
     70 H24         -4.1760     0.0600     1.9230 hc         1 N42       0.043367
     71 H25         -4.5590    -0.9870     0.5660 hc         1 N42       0.043367
     72 H26         -2.9480    -1.0090     1.2670 hc         1 N42       0.043367
     73 H27         -0.6290     2.2800    -1.2630 ha         1 N42       0.117000
     74 H28         -2.3610     3.3290    -2.6660 ha         1 N42       0.120000
     75 H29         -4.7350     2.7730    -2.3120 ha         1 N42       0.134000
     76 H30         -5.9920     0.9890     0.4050 hn         1 N42       0.155000
     77 H31         -8.8530     0.8730    -2.8700 ha         1 N42       0.120000
     78 H32        -11.0890     0.2190    -2.1960 ha         1 N42       0.117000
     79 H33        -11.1770    -2.7370     1.2680 hc         1 N42       0.036922
     80 H34        -12.8730    -2.8070     0.8000 hc         1 N42       0.036922
     81 H35        -11.6120    -3.0370    -0.4140 hc         1 N42       0.036922
     82 H36        -12.2880     0.8680     1.3190 hc         1 N42       0.036922
     83 H37        -13.2510    -0.5170     1.8390 hc         1 N42       0.036922
     84 H38        -11.5530    -0.4080     2.2890 hc         1 N42       0.036922
     85 H39        -12.7830    -1.2160    -1.7840 hc         1 N42       0.036922
     86 H40        -13.9440    -1.0240    -0.4780 hc         1 N42       0.036922
     87 H41        -13.0660     0.3790    -1.0760 hc         1 N42       0.036922
     88 H42         -9.5390    -1.1750     1.5520 ha         1 N42       0.117000
     89 H43         -7.3250    -0.5210     0.8920 ha         1 N42       0.120000
@<TRIPOS>BOND
     1     1     2 2   
     2     1    49 1   
     3     1    50 1   
     4     2     3 1   
     5     2    51 1   
     6     3     4 2   
     7     3     5 1   
     8     5     6 1   
     9     5    52 1   
    10     6     7 ar  
    11     6     8 ar  
    12     7    19 ar  
    13     7    53 1   
    14     8     9 1   
    15     8    17 ar  
    16     9    10 2   
    17     9    11 1   
    18    11    12 1   
    19    11    16 1   
    20    12    13 1   
    21    12    54 1   
    22    12    55 1   
    23    13    14 1   
    24    13    56 1   
    25    13    57 1   
    26    14    15 1   
    27    15    16 1   
    28    15    58 1   
    29    15    59 1   
    30    16    60 1   
    31    16    61 1   
    32    17    18 ar  
    33    17    62 1   
    34    18    19 ar  
    35    18    63 1   
    36    19    20 1   
    37    20    21 1   
    38    20    64 1   
    39    21    22 2   
    40    21    23 1   
    41    22    28 1   
    42    22    65 1   
    43    23    24 2   
    44    23    25 1   
    45    25    26 1   
    46    25    27 1   
    47    26    66 1   
    48    26    67 1   
    49    26    68 1   
    50    27    28 2   
    51    27    69 1   
    52    28    29 1   
    53    29    30 ar  
    54    29    32 ar  
    55    30    31 1   
    56    30    35 ar  
    57    31    70 1   
    58    31    71 1   
    59    31    72 1   
    60    32    33 ar  
    61    32    73 1   
    62    33    34 ar  
    63    33    74 1   
    64    34    35 ar  
    65    34    75 1   
    66    35    36 1   
    67    36    37 1   
    68    36    76 1   
    69    37    38 2   
    70    37    39 1   
    71    39    40 ar  
    72    39    48 ar  
    73    40    41 ar  
    74    40    77 1   
    75    41    42 ar  
    76    41    78 1   
    77    42    43 1   
    78    42    47 ar  
    79    43    44 1   
    80    43    45 1   
    81    43    46 1   
    82    44    79 1   
    83    44    80 1   
    84    44    81 1   
    85    45    82 1   
    86    45    83 1   
    87    45    84 1   
    88    46    85 1   
    89    46    86 1   
    90    46    87 1   
    91    47    48 ar  
    92    47    88 1   
    93    48    89 1   
@<TRIPOS>SUBSTRUCTURE
     1 N42         1 TEMP              0 ****  ****    0 ROOT
