@<TRIPOS>MOLECULE
N43
   47    49     1     0     0
SMALL
No Charge or Current Charge


@<TRIPOS>ATOM
      1 N1           4.8050     1.2220    18.1760 ns         1 N43      -0.374100
      2 C4          12.9590    -0.4070    22.7160 ca         1 N43      -0.108000
      3 C5          11.7980    -1.1670    22.4980 ca         1 N43      -0.161000
      4 C6          10.5310    -0.6470    22.8530 ca         1 N43       0.105100
      5 C7           9.3480    -2.6360    21.9640 c3         1 N43       0.141600
      6 C8           7.8800    -3.0980    21.8540 c3         1 N43       0.105000
      7 C10          5.3980    -1.0220    19.7640 cc         1 N43      -0.015400
      8 C13          5.2610     1.4580    19.4740 ca         1 N43       0.136600
      9 C15          5.6640     3.0470    21.2590 ca         1 N43      -0.015000
     10 C17          5.6010     0.6470    21.7280 ca         1 N43       0.220100
     11 C12          4.4520     0.0180    17.6480 c          1 N43       0.560200
     12 C11          4.7820    -1.1210    18.5170 cd         1 N43      -0.278200
     13 C19          5.4600     0.3590    20.3400 ca         1 N43      -0.154800
     14 O4           5.5210    -0.3800    22.6460 os         1 N43      -0.339100
     15 C18          5.6660    -0.1830    24.0640 c3         1 N43       0.155900
     16 C16          5.7340     1.9850    22.1670 ca         1 N43      -0.253000
     17 C14          5.3910     2.7810    19.9150 ca         1 N43      -0.213000
     18 C9           6.0750    -2.2670    20.2810 c          1 N43       0.611300
     19 O2           5.8760    -3.3860    19.8240 o          1 N43      -0.586100
     20 N            7.0290    -2.0660    21.2490 ns         1 N43      -0.480900
     21 O1           9.3670    -1.3680    22.6490 os         1 N43      -0.347100
     22 C1          10.4390     0.6440    23.4290 ca         1 N43       0.109100
     23 O            9.1870     1.1340    23.7640 os         1 N43      -0.337100
     24 C            8.9960     2.4460    24.3220 c3         1 N43       0.143900
     25 C3          12.8690     0.8720    23.2860 ca         1 N43      -0.104000
     26 C2          11.6160     1.3990    23.6420 ca         1 N43      -0.165000
     27 H1           4.6250     2.0310    17.5970 hn         1 N43       0.328500
     28 H3          11.9010    -2.1540    22.0570 ha         1 N43       0.119000
     29 H4           9.9280    -3.3900    22.5130 h1         1 N43       0.045200
     30 H5           9.7680    -2.5360    20.9550 h1         1 N43       0.045200
     31 H6           7.4960    -3.3250    22.8570 h1         1 N43       0.063700
     32 H7           7.8410    -4.0190    21.2600 h1         1 N43       0.063700
     33 H8           5.7580     4.0750    21.6060 ha         1 N43       0.115000
     34 H9           4.6330    -2.0770    18.0280 ha         1 N43       0.218000
     35 H10          5.5800    -1.1420    24.5900 h1         1 N43       0.049367
     36 H11          6.6480     0.2450    24.3010 h1         1 N43       0.049367
     37 H12          4.8850     0.4850    24.4480 h1         1 N43       0.049367
     38 H13          5.8670     2.2250    23.2170 ha         1 N43       0.123000
     39 H14          5.2490     3.6070    19.2220 ha         1 N43       0.123000
     40 H15          7.1200    -1.1180    21.5960 hn         1 N43       0.325500
     41 H16          7.9310     2.6270    24.5120 h1         1 N43       0.042367
     42 H17          9.5300     2.5470    25.2750 h1         1 N43       0.042367
     43 H18          9.3540     3.2200    23.6320 h1         1 N43       0.042367
     44 H19         13.7720     1.4560    23.4520 ha         1 N43       0.117000
     45 H20         11.5790     2.3920    24.0800 ha         1 N43       0.119000
     46 O3           3.9540    -0.0890    16.5390 o          1 N43      -0.553000
     47 H2          13.9320    -0.8110    22.4420 ha         1 N43       0.117000
@<TRIPOS>BOND
     1     1     8 1   
     2     1    11 1   
     3     1    27 1   
     4     2     3 ar  
     5     2    25 ar  
     6     2    47 1   
     7     3     4 ar  
     8     3    28 1   
     9     4    21 1   
    10     4    22 ar  
    11     5     6 1   
    12     5    21 1   
    13     5    29 1   
    14     5    30 1   
    15     6    20 1   
    16     6    31 1   
    17     6    32 1   
    18     7    12 2   
    19     7    13 1   
    20     7    18 1   
    21     8    13 ar  
    22     8    17 ar  
    23     9    16 ar  
    24     9    17 ar  
    25     9    33 1   
    26    10    13 ar  
    27    10    14 1   
    28    10    16 ar  
    29    11    12 1   
    30    11    46 2   
    31    12    34 1   
    32    14    15 1   
    33    15    35 1   
    34    15    36 1   
    35    15    37 1   
    36    16    38 1   
    37    17    39 1   
    38    18    19 2   
    39    18    20 1   
    40    20    40 1   
    41    22    23 1   
    42    22    26 ar  
    43    23    24 1   
    44    24    41 1   
    45    24    42 1   
    46    24    43 1   
    47    25    26 ar  
    48    25    44 1   
    49    26    45 1   
@<TRIPOS>SUBSTRUCTURE
     1 N43         1 TEMP              0 ****  ****    0 ROOT
