@<TRIPOS>MOLECULE
N43
   47    49     1     0     0
SMALL
abcg2


@<TRIPOS>ATOM
      1 N1           4.8370     1.4480    18.3940 ns         1 N43      -0.374100
      2 C4          12.8880    -0.6830    23.1820 ca         1 N43      -0.108000
      3 C5          11.7390    -1.4160    22.8770 ca         1 N43      -0.161000
      4 C6          10.4980    -0.7940    22.8540 ca         1 N43       0.105100
      5 C7           9.3580    -2.7350    22.0140 c3         1 N43       0.141600
      6 C8           7.9340    -3.1000    21.6640 c3         1 N43       0.105000
      7 C10          5.6150    -0.7420    19.8440 cc         1 N43      -0.015400
      8 C13          4.9610     1.6020    19.7560 ca         1 N43       0.136600
      9 C15          4.8360     2.9890    21.7020 ca         1 N43      -0.015000
     10 C17          5.4640     0.6750    21.9430 ca         1 N43       0.220100
     11 C12          5.0660     0.2910    17.6870 c          1 N43       0.560200
     12 C11          5.4790    -0.8330    18.4970 cd         1 N43      -0.278200
     13 C19          5.3520     0.4920    20.5370 ca         1 N43      -0.154800
     14 O4           5.8160    -0.4130    22.6550 os         1 N43      -0.339100
     15 C18          6.0370    -0.2880    24.0620 c3         1 N43       0.155900
     16 C16          5.2120     1.9130    22.5130 ca         1 N43      -0.253000
     17 C14          4.7060     2.8500    20.3380 ca         1 N43      -0.213000
     18 C9           6.0450    -1.9940    20.5710 c          1 N43       0.611300
     19 O2           5.2280    -2.8510    20.8970 o          1 N43      -0.586100
     20 N            7.3680    -2.1030    20.7650 ns         1 N43      -0.480900
     21 O1           9.3230    -1.4270    22.5850 os         1 N43      -0.347100
     22 C1          10.4000     0.5880    23.1300 ca         1 N43       0.109100
     23 O            9.1490     1.1180    23.0660 os         1 N43      -0.337100
     24 C            8.9990     2.5140    23.3110 c3         1 N43       0.143900
     25 C3          12.7930     0.6690    23.4620 ca         1 N43      -0.104000
     26 C2          11.5490     1.3050    23.4360 ca         1 N43      -0.165000
     27 H1           4.5570     2.2520    17.8470 hn         1 N43       0.328500
     28 H3          11.8170    -2.4720    22.6640 ha         1 N43       0.119000
     29 H4           9.7570    -3.4620    22.7250 h1         1 N43       0.045200
     30 H5           9.9940    -2.7280    21.1230 h1         1 N43       0.045200
     31 H6           7.3240    -3.1500    22.5690 h1         1 N43       0.063700
     32 H7           7.9250    -4.0880    21.2000 h1         1 N43       0.063700
     33 H8           4.6430     3.9490    22.1620 ha         1 N43       0.115000
     34 H9           5.6840    -1.7580    17.9760 ha         1 N43       0.218000
     35 H10          6.3300    -1.2780    24.3980 h1         1 N43       0.049367
     36 H11          6.8400     0.4220    24.2610 h1         1 N43       0.049367
     37 H12          5.1240     0.0220    24.5720 h1         1 N43       0.049367
     38 H13          5.3000     2.0550    23.5780 ha         1 N43       0.123000
     39 H14          4.4120     3.6820    19.7110 ha         1 N43       0.123000
     40 H15          7.9340    -1.2920    20.5640 hn         1 N43       0.325500
     41 H16          7.9390     2.7220    23.1930 h1         1 N43       0.042367
     42 H17          9.3150     2.7720    24.3250 h1         1 N43       0.042367
     43 H18          9.5710     3.1030    22.5900 h1         1 N43       0.042367
     44 H19         13.6780     1.2450    23.7010 ha         1 N43       0.117000
     45 H20         11.4860     2.3620    23.6500 ha         1 N43       0.119000
     46 O3           4.9260     0.2610    16.4590 o          1 N43      -0.553000
     47 H2          13.8480    -1.1820    23.1970 ha         1 N43       0.117000
@<TRIPOS>BOND
     1     1     8 1   
     2     1    11 1   
     3     1    27 1   
     4     2     3 ar  
     5     2    25 ar  
     6     2    47 1   
     7     3     4 ar  
     8     3    28 1   
     9     4    21 1   
    10     4    22 ar  
    11     5     6 1   
    12     5    21 1   
    13     5    29 1   
    14     5    30 1   
    15     6    20 1   
    16     6    31 1   
    17     6    32 1   
    18     7    12 2   
    19     7    13 1   
    20     7    18 1   
    21     8    13 ar  
    22     8    17 ar  
    23     9    16 ar  
    24     9    17 ar  
    25     9    33 1   
    26    10    13 ar  
    27    10    14 1   
    28    10    16 ar  
    29    11    12 1   
    30    11    46 2   
    31    12    34 1   
    32    14    15 1   
    33    15    35 1   
    34    15    36 1   
    35    15    37 1   
    36    16    38 1   
    37    17    39 1   
    38    18    19 2   
    39    18    20 1   
    40    20    40 1   
    41    22    23 1   
    42    22    26 ar  
    43    23    24 1   
    44    24    41 1   
    45    24    42 1   
    46    24    43 1   
    47    25    26 ar  
    48    25    44 1   
    49    26    45 1   
@<TRIPOS>SUBSTRUCTURE
     1 N43         1 TEMP              0 ****  ****    0 ROOT
