@<TRIPOS>MOLECULE
N44
   59    62     1     0     0
SMALL
abcg2


@<TRIPOS>ATOM
      1 C1          -4.4550    -2.7220     2.7430 ca         1 N44      -0.122000
      2 C2           1.7520    -4.5470    -2.2250 ca         1 N44      -0.126000
      3 C3          -3.8010    -1.5550     3.1100 ca         1 N44      -0.129000
      4 C4          -4.2980    -3.2230     1.4550 ca         1 N44      -0.129000
      5 C5           3.0790    -4.1500    -2.1770 ca         1 N44      -0.112000
      6 C6           0.7520    -3.6220    -1.9580 ca         1 N44      -0.090000
      7 C7          -2.9930    -0.8890     2.1950 ca         1 N44      -0.090500
      8 C8          -3.4910    -2.5570     0.5450 ca         1 N44      -0.090500
      9 C9           3.3960    -2.8370    -1.8500 ca         1 N44      -0.123000
     10 C10          2.0710     2.7400    -1.5580 ca         1 N44      -0.133000
     11 C11          1.3280     3.6150    -2.3570 ca         1 N44      -0.122000
     12 C12          1.0690    -2.3020    -1.6570 ca         1 N44      -0.111600
     13 C13          0.3730     2.7000     0.1860 ca         1 N44      -0.089600
     14 C14         -2.8330    -1.3820     0.9050 ca         1 N44      -0.091300
     15 C15          2.4040    -1.8980    -1.5910 ca         1 N44      -0.039300
     16 C16          1.6230     2.2730    -0.3290 ca         1 N44      -0.055300
     17 C17          0.1060     3.9870    -1.8640 ca         1 N44       0.032100
     18 C18         -0.3550     3.5360    -0.6350 ca         1 N44       0.071100
     19 C20          1.4170    -1.0970     2.1680 c2         1 N44      -0.190200
     20 C21         -0.0580    -1.3240    -1.5010 c          1 N44       0.620700
     21 C23         -1.9500     4.7500    -1.5890 c5         1 N44       0.367600
     22 C24         -1.9440    -0.6760    -0.0840 c3         1 N44       0.122300
     23 C25          2.7730    -0.4960    -1.1900 c3         1 N44       0.207100
     24 C26          2.4870     1.2820     0.4090 c3         1 N44       0.211100
     25 C27          2.5460    -0.9970     1.1870 c3         1 N44       0.198000
     26 N28         -0.8150    -1.5210    -0.4120 ns         1 N44      -0.476900
     27 N29          2.1890    -0.1110     0.0810 n3         1 N44      -0.718600
     28 O30          0.6680     2.4270     2.5180 o          1 N44      -0.716000
     29 O31         -0.3030    -0.5010    -2.3700 o          1 N44      -0.600100
     30 O32         -1.3810     2.2040     1.6790 o          1 N44      -0.716000
     31 O33         -0.7900     4.8560    -2.4000 os         1 N44      -0.369100
     32 O34         -1.5500     4.1370    -0.3790 os         1 N44      -0.311100
     33 H1          -5.0870    -3.2400     3.4530 ha         1 N44       0.095000
     34 H2           1.4940    -5.5690    -2.4660 ha         1 N44       0.104000
     35 H3          -3.9180    -1.1610     4.1120 ha         1 N44       0.101500
     36 H4          -4.8050    -4.1330     1.1610 ha         1 N44       0.101500
     37 H5           3.8700    -4.8610    -2.3790 ha         1 N44       0.101000
     38 H6          -0.2870    -3.9270    -1.9980 ha         1 N44       0.117000
     39 H7          -2.4870     0.0260     2.4780 ha         1 N44       0.137500
     40 H8          -3.3700    -2.9520    -0.4570 ha         1 N44       0.137500
     41 H9           4.4350    -2.5380    -1.7830 ha         1 N44       0.106000
     42 H10          3.0450     2.4250    -1.9130 ha         1 N44       0.089000
     43 H11          1.7050     3.9810    -3.3020 ha         1 N44       0.108000
     44 H19          1.2810    -3.2040     2.2710 ha         1 N44       0.153000
     45 H19A         0.0800    -2.2620     3.3050 ha         1 N44       0.153000
     46 H20          1.0010    -0.1600     2.5250 ha         1 N44       0.224000
     47 H23         -2.3520     5.7430    -1.3880 h2         1 N44       0.043700
     48 H23A        -2.7000     4.1300    -2.0940 h2         1 N44       0.043700
     49 H24         -2.4940    -0.4720    -1.0040 h1         1 N44       0.086700
     50 H24A        -1.6150     0.2840     0.3180 h1         1 N44       0.086700
     51 H25          3.8730    -0.4040    -1.1890 h1         1 N44       0.045700
     52 H25A         2.4070     0.2010    -1.9460 h1         1 N44       0.045700
     53 H26          3.5470     1.5040     0.2000 h1         1 N44       0.053700
     54 H26A         2.3460     1.4200     1.4760 h1         1 N44       0.053700
     55 H27          3.4620    -0.6530     1.6940 h1         1 N44       0.028200
     56 H27A         2.7730    -1.9950     0.8100 h1         1 N44       0.028200
     57 HN28        -0.3810    -2.0090     0.3590 hn         1 N44       0.317500
     58 C22         -0.1560     2.3980     1.5840 c          1 N44       0.724600
     59 C19          0.9020    -2.2430     2.6020 c2         1 N44      -0.362000
@<TRIPOS>BOND
     1     1     3 ar  
     2     1     4 ar  
     3     1    33 1   
     4     2     5 ar  
     5     2     6 ar  
     6     2    34 1   
     7     3     7 ar  
     8     3    35 1   
     9     4     8 ar  
    10     4    36 1   
    11     5     9 ar  
    12     5    37 1   
    13     6    12 ar  
    14     6    38 1   
    15     7    14 ar  
    16     7    39 1   
    17     8    14 ar  
    18     8    40 1   
    19     9    15 ar  
    20     9    41 1   
    21    10    11 ar  
    22    10    16 ar  
    23    10    42 1   
    24    11    17 ar  
    25    11    43 1   
    26    12    15 ar  
    27    12    20 1   
    28    13    16 ar  
    29    13    18 ar  
    30    13    58 1   
    31    14    22 1   
    32    15    23 1   
    33    16    24 1   
    34    17    18 ar  
    35    17    31 1   
    36    18    32 1   
    37    19    25 1   
    38    19    46 1   
    39    19    59 2   
    40    20    26 1   
    41    20    29 2   
    42    21    31 1   
    43    21    32 1   
    44    21    47 1   
    45    21    48 1   
    46    22    26 1   
    47    22    49 1   
    48    22    50 1   
    49    23    27 1   
    50    23    51 1   
    51    23    52 1   
    52    24    27 1   
    53    24    53 1   
    54    24    54 1   
    55    25    27 1   
    56    25    55 1   
    57    25    56 1   
    58    26    57 1   
    59    28    58 1   
    60    30    58 1   
    61    44    59 1   
    62    45    59 1   
@<TRIPOS>SUBSTRUCTURE
     1 N44         1 TEMP              0 ****  ****    0 ROOT
