@<TRIPOS>MOLECULE
N44
   59    62     1     0     0
SMALL
No Charge or Current Charge


@<TRIPOS>ATOM
      1 C1          -4.5990    -3.1960     2.8710 ca         1 N44      -0.122000
      2 C2           1.7910    -4.5710    -2.0970 ca         1 N44      -0.126000
      3 C3          -3.6710    -2.1790     3.1470 ca         1 N44      -0.129000
      4 C4          -4.8500    -3.5750     1.5410 ca         1 N44      -0.129000
      5 C5           3.1090    -4.0970    -2.0640 ca         1 N44      -0.112000
      6 C6           0.7230    -3.6880    -1.8780 ca         1 N44      -0.090000
      7 C7          -2.9940    -1.5390     2.0940 ca         1 N44      -0.090500
      8 C8          -4.1730    -2.9360     0.4870 ca         1 N44      -0.090500
      9 C9           3.3580    -2.7420    -1.8020 ca         1 N44      -0.123000
     10 C10          2.3260     2.8950    -1.5420 ca         1 N44      -0.133000
     11 C11          1.6250     3.8080    -2.3520 ca         1 N44      -0.122000
     12 C12          0.9560    -2.3140    -1.6290 ca         1 N44      -0.111600
     13 C13          0.4810     2.8690     0.0840 ca         1 N44      -0.089600
     14 C14         -3.2420    -1.9130     0.7590 ca         1 N44      -0.091300
     15 C15          2.2950    -1.8400    -1.5790 ca         1 N44      -0.039300
     16 C16          1.7650     2.4080    -0.3310 ca         1 N44      -0.055300
     17 C17          0.3590     4.2210    -1.9280 ca         1 N44       0.032100
     18 C18         -0.1900     3.7740    -0.7580 ca         1 N44       0.071100
     19 C20          2.2540    -0.7790     2.5780 c2         1 N44      -0.190200
     20 C21         -0.2250    -1.3920    -1.4250 c          1 N44       0.620700
     21 C23         -1.6570     5.0970    -1.7520 c5         1 N44       0.367600
     22 C24         -2.5010    -1.2260    -0.3780 c3         1 N44       0.122300
     23 C25          2.6370    -0.3920    -1.2020 c3         1 N44       0.207100
     24 C26          2.5690     1.4070     0.5080 c3         1 N44       0.211100
     25 C27          2.8790    -0.9450     1.2070 c3         1 N44       0.198000
     26 N28         -1.2580    -1.9270    -0.6880 ns         1 N44      -0.476900
     27 N29          2.2900    -0.0250     0.2010 n3         1 N44      -0.718600
     28 O30          0.3500     2.8900     2.4220 o          1 N44      -0.716000
     29 O31         -0.3230    -0.2930    -1.9560 o          1 N44      -0.600100
     30 O32         -1.1870     1.8130     1.3610 o          1 N44      -0.716000
     31 O33         -0.4340     5.1170    -2.5680 os         1 N44      -0.369100
     32 O34         -1.3970     4.3530    -0.5140 os         1 N44      -0.311100
     33 H1          -5.1230    -3.6910     3.6850 ha         1 N44       0.095000
     34 H2           1.5960    -5.6220    -2.2980 ha         1 N44       0.104000
     35 H3          -3.4750    -1.8860     4.1760 ha         1 N44       0.101500
     36 H4          -5.5670    -4.3640     1.3260 ha         1 N44       0.101500
     37 H5           3.9380    -4.7810    -2.2320 ha         1 N44       0.101000
     38 H6          -0.2930    -4.0740    -1.9300 ha         1 N44       0.117000
     39 H7          -2.2740    -0.7520     2.3150 ha         1 N44       0.137500
     40 H8          -4.3700    -3.2370    -0.5400 ha         1 N44       0.137500
     41 H9           4.3870    -2.3930    -1.7550 ha         1 N44       0.106000
     42 H10          3.3120     2.5570    -1.8550 ha         1 N44       0.089000
     43 H11          2.0540     4.1840    -3.2780 ha         1 N44       0.108000
     44 H19          0.3190    -1.5650     2.1740 ha         1 N44       0.153000
     45 H19A         0.6090    -0.9840     3.9170 ha         1 N44       0.153000
     46 H20          2.9260    -0.3400     3.3190 ha         1 N44       0.224000
     47 H23         -1.9650     6.1220    -1.5150 h2         1 N44       0.043700
     48 H23A        -2.4470     4.5830    -2.3130 h2         1 N44       0.043700
     49 H24         -3.1320    -1.1990    -1.2760 h1         1 N44       0.086700
     50 H24A        -2.2730    -0.1890    -0.0970 h1         1 N44       0.086700
     51 H25          3.7120    -0.2320    -1.3640 h1         1 N44       0.045700
     52 H25A         2.1260     0.2680    -1.9130 h1         1 N44       0.045700
     53 H26          3.6390     1.6120     0.3580 h1         1 N44       0.053700
     54 H26A         2.3780     1.6140     1.5680 h1         1 N44       0.053700
     55 H27          3.9640    -0.7830     1.2750 h1         1 N44       0.028200
     56 H27A         2.7330    -1.9910     0.9090 h1         1 N44       0.028200
     57 HN28        -1.1050    -2.8430    -0.2870 hn         1 N44       0.317500
     58 C22         -0.1470     2.4580     1.3890 c          1 N44       0.724600
     59 C19          0.9980    -1.1300     2.9090 c2         1 N44      -0.362000
@<TRIPOS>BOND
     1     1     3 ar  
     2     1     4 ar  
     3     1    33 1   
     4     2     5 ar  
     5     2     6 ar  
     6     2    34 1   
     7     3     7 ar  
     8     3    35 1   
     9     4     8 ar  
    10     4    36 1   
    11     5     9 ar  
    12     5    37 1   
    13     6    12 ar  
    14     6    38 1   
    15     7    14 ar  
    16     7    39 1   
    17     8    14 ar  
    18     8    40 1   
    19     9    15 ar  
    20     9    41 1   
    21    10    11 ar  
    22    10    16 ar  
    23    10    42 1   
    24    11    17 ar  
    25    11    43 1   
    26    12    15 ar  
    27    12    20 1   
    28    13    16 ar  
    29    13    18 ar  
    30    13    58 1   
    31    14    22 1   
    32    15    23 1   
    33    16    24 1   
    34    17    18 ar  
    35    17    31 1   
    36    18    32 1   
    37    19    25 1   
    38    19    46 1   
    39    19    59 2   
    40    20    26 1   
    41    20    29 2   
    42    21    31 1   
    43    21    32 1   
    44    21    47 1   
    45    21    48 1   
    46    22    26 1   
    47    22    49 1   
    48    22    50 1   
    49    23    27 1   
    50    23    51 1   
    51    23    52 1   
    52    24    27 1   
    53    24    53 1   
    54    24    54 1   
    55    25    27 1   
    56    25    55 1   
    57    25    56 1   
    58    26    57 1   
    59    28    58 1   
    60    30    58 1   
    61    44    59 1   
    62    45    59 1   
@<TRIPOS>SUBSTRUCTURE
     1 N44         1 TEMP              0 ****  ****    0 ROOT
