@<TRIPOS>MOLECULE
N45
   45    48     1     0     0
SMALL
abcg2


@<TRIPOS>ATOM
      1 O2          -3.8710    -2.2770    -0.9930 o          1 N45      -0.526000
      2 C10         -3.1090    -1.4180    -0.5940 c          1 N45       0.577200
      3 C9          -1.6890    -1.5890    -0.2140 cc         1 N45      -0.042600
      4 N4          -1.2110    -0.3670     0.1590 n          1 N45      -0.281000
      5 C11         -2.2580     0.6750     0.1000 c5         1 N45       0.299800
      6 C14         -1.9010     1.7940    -0.8830 c6         1 N45      -0.095900
      7 C15         -3.0070     2.8450    -0.9440 c6         1 N45      -0.073400
      8 C16         -3.3330     3.3950     0.4410 c6         1 N45      -0.081400
      9 C13         -3.6970     2.2760     1.4100 c6         1 N45      -0.073400
     10 C12         -2.5870     1.2310     1.4890 c6         1 N45      -0.095900
     11 N5          -3.3650    -0.1150    -0.4050 ns         1 N45      -0.525900
     12 C8          -0.9340    -2.7190    -0.2020 cd         1 N45      -0.087200
     13 C17         -1.4470    -4.0700    -0.6020 c3         1 N45      -0.033900
     14 C7           0.4120    -2.5410     0.2030 cd         1 N45      -0.135000
     15 C2           0.9080    -1.3280     0.5780 cc         1 N45       0.031800
     16 C1           0.0720    -0.1370     0.6030 c          1 N45       0.552200
     17 O1           0.4550     0.9620     0.9820 o          1 N45      -0.538000
     18 N1           2.2170    -1.1960     1.0410 nu         1 N45      -0.810900
     19 C3           3.1560    -0.3630     0.5190 ca         1 N45       0.418900
     20 C5           2.9920     0.3000    -0.6900 ca         1 N45      -0.343000
     21 C6           4.0450     1.1180    -1.1050 ca         1 N45       0.395900
     22 N6           3.9760     1.8390    -2.2410 nv         1 N45      -1.067900
     23 N3           5.1680     1.2410    -0.3770 nb         1 N45      -0.288000
     24 C4           5.2120     0.5400     0.7400 ca         1 N45       0.193900
     25 N2           4.2840    -0.2520     1.2400 nb         1 N45      -0.288000
     26 H1          -0.9740     2.2670    -0.5570 hc         1 N45       0.071450
     27 H2          -1.7200     1.3590    -1.8690 hc         1 N45       0.071450
     28 H3          -2.6870     3.6520    -1.6060 hc         1 N45       0.043950
     29 H4          -3.9100     2.4260    -1.3990 hc         1 N45       0.043950
     30 H5          -2.4640     3.9360     0.8280 hc         1 N45       0.049200
     31 H6          -4.1490     4.1170     0.3750 hc         1 N45       0.049200
     32 H7          -3.8690     2.6800     2.4100 hc         1 N45       0.043950
     33 H8          -4.6430     1.8130     1.1090 hc         1 N45       0.043950
     34 H9          -2.8700     0.4040     2.1440 hc         1 N45       0.071450
     35 H10         -1.6930     1.6940     1.9050 hc         1 N45       0.071450
     36 H11         -4.2710     0.2880    -0.5890 hn         1 N45       0.345500
     37 H12         -1.8020    -4.0810    -1.6310 hc         1 N45       0.053033
     38 H13         -0.6530    -4.8090    -0.5130 hc         1 N45       0.053033
     39 H14         -2.2730    -4.3940     0.0300 hc         1 N45       0.053033
     40 H15          1.0730    -3.3990     0.2170 ha         1 N45       0.197000
     41 H16          2.5090    -1.7550     1.8280 hn         1 N45       0.517000
     42 H17          2.1070     0.1850    -1.3010 ha         1 N45       0.128000
     43 H18          3.2620     1.6350    -2.9190 hn         1 N45       0.485000
     44 H19          4.8220     2.2520    -2.5940 hn         1 N45       0.485000
     45 H20          6.1260     0.6260     1.3210 h5         1 N45       0.041100
@<TRIPOS>BOND
     1     1     2 2   
     2     2     3 1   
     3     2    11 1   
     4     3     4 1   
     5     3    12 2   
     6     4     5 1   
     7     4    16 1   
     8     5     6 1   
     9     5    10 1   
    10     5    11 1   
    11     6     7 1   
    12     6    26 1   
    13     6    27 1   
    14     7     8 1   
    15     7    28 1   
    16     7    29 1   
    17     8     9 1   
    18     8    30 1   
    19     8    31 1   
    20     9    10 1   
    21     9    32 1   
    22     9    33 1   
    23    10    34 1   
    24    10    35 1   
    25    11    36 1   
    26    12    13 1   
    27    12    14 1   
    28    13    37 1   
    29    13    38 1   
    30    13    39 1   
    31    14    15 2   
    32    14    40 1   
    33    15    16 1   
    34    15    18 1   
    35    16    17 2   
    36    18    19 1   
    37    18    41 1   
    38    19    20 ar  
    39    19    25 ar  
    40    20    21 ar  
    41    20    42 1   
    42    21    22 1   
    43    21    23 ar  
    44    22    43 1   
    45    22    44 1   
    46    23    24 ar  
    47    24    25 ar  
    48    24    45 1   
@<TRIPOS>SUBSTRUCTURE
     1 N45         1 TEMP              0 ****  ****    0 ROOT
