@<TRIPOS>MOLECULE
N45
   45    48     1     0     0
SMALL
No Charge or Current Charge


@<TRIPOS>ATOM
      1 O2          -3.9650    -2.3260    -0.8220 o          1 N45      -0.526000
      2 C10         -3.1620    -1.4740    -0.4730 c          1 N45       0.577200
      3 C9          -1.7360    -1.6120    -0.1460 cc         1 N45      -0.042600
      4 N4          -1.2570    -0.3730     0.1920 n          1 N45      -0.281000
      5 C11         -2.3170     0.6550     0.1180 c5         1 N45       0.299800
      6 C14         -2.0170     1.7530    -0.9440 c6         1 N45      -0.095900
      7 C15         -3.1510     2.8100    -1.0330 c6         1 N45      -0.073400
      8 C16         -3.4370     3.4410     0.3530 c6         1 N45      -0.081400
      9 C13         -3.7620     2.3590     1.4120 c6         1 N45      -0.073400
     10 C12         -2.6280     1.3030     1.5000 c6         1 N45      -0.095900
     11 N5          -3.4680    -0.1470    -0.3150 ns         1 N45      -0.525900
     12 C8          -0.9740    -2.7680    -0.1610 cd         1 N45      -0.087200
     13 C17         -1.5200    -4.1270    -0.5330 c3         1 N45      -0.033900
     14 C7           0.4180    -2.6130     0.1980 cd         1 N45      -0.135000
     15 C2           0.9430    -1.3740     0.5350 cc         1 N45       0.031800
     16 C1           0.0770    -0.1300     0.5620 c          1 N45       0.552200
     17 O1           0.4760     0.9840     0.8870 o          1 N45      -0.538000
     18 N1           2.3010    -1.2680     0.8580 nu         1 N45      -0.810900
     19 C3           3.2980    -0.4010     0.4410 ca         1 N45       0.418900
     20 C5           3.1460     0.4420    -0.6650 ca         1 N45      -0.343000
     21 C6           4.2350     1.2400    -1.0000 ca         1 N45       0.395900
     22 N6           4.1880     2.0890    -2.0530 nv         1 N45      -1.067900
     23 N3           5.3870     1.2100    -0.3220 nb         1 N45      -0.288000
     24 C4           5.4380     0.3520     0.7170 ca         1 N45       0.193900
     25 N2           4.4470    -0.4650     1.1300 nb         1 N45      -0.288000
     26 H1          -1.0780     2.2670    -0.7010 hc         1 N45       0.071450
     27 H2          -1.8650     1.2870    -1.9270 hc         1 N45       0.071450
     28 H3          -2.8710     3.5960    -1.7470 hc         1 N45       0.043950
     29 H4          -4.0670     2.3490    -1.4280 hc         1 N45       0.043950
     30 H5          -2.5650     4.0260     0.6780 hc         1 N45       0.049200
     31 H6          -4.2740     4.1490     0.2740 hc         1 N45       0.049200
     32 H7          -3.9050     2.8320     2.3930 hc         1 N45       0.043950
     33 H8          -4.7150     1.8710     1.1650 hc         1 N45       0.043950
     34 H9          -2.9010     0.5220     2.2230 hc         1 N45       0.071450
     35 H10         -1.7290     1.7880     1.9010 hc         1 N45       0.071450
     36 H11         -4.4080     0.1810    -0.4880 hn         1 N45       0.345500
     37 H12         -1.9110    -4.1270    -1.5570 hc         1 N45       0.053033
     38 H13         -0.7490    -4.9040    -0.4760 hc         1 N45       0.053033
     39 H14         -2.3330    -4.4220     0.1410 hc         1 N45       0.053033
     40 H15          1.0690    -3.4820     0.1920 ha         1 N45       0.197000
     41 H16          2.6640    -2.0250     1.4400 hn         1 N45       0.517000
     42 H17          2.2260     0.4700    -1.2360 ha         1 N45       0.128000
     43 H18          3.4340     1.9910    -2.7290 hn         1 N45       0.485000
     44 H19          5.0560     2.4990    -2.3880 hn         1 N45       0.485000
     45 H20          6.3720     0.3120     1.2760 h5         1 N45       0.041100
@<TRIPOS>BOND
     1     1     2 2   
     2     2     3 1   
     3     2    11 1   
     4     3     4 1   
     5     3    12 2   
     6     4     5 1   
     7     4    16 1   
     8     5     6 1   
     9     5    10 1   
    10     5    11 1   
    11     6     7 1   
    12     6    26 1   
    13     6    27 1   
    14     7     8 1   
    15     7    28 1   
    16     7    29 1   
    17     8     9 1   
    18     8    30 1   
    19     8    31 1   
    20     9    10 1   
    21     9    32 1   
    22     9    33 1   
    23    10    34 1   
    24    10    35 1   
    25    11    36 1   
    26    12    13 1   
    27    12    14 1   
    28    13    37 1   
    29    13    38 1   
    30    13    39 1   
    31    14    15 2   
    32    14    40 1   
    33    15    16 1   
    34    15    18 1   
    35    16    17 2   
    36    18    19 1   
    37    18    41 1   
    38    19    20 ar  
    39    19    25 ar  
    40    20    21 ar  
    41    20    42 1   
    42    21    22 1   
    43    21    23 ar  
    44    22    43 1   
    45    22    44 1   
    46    23    24 ar  
    47    24    25 ar  
    48    24    45 1   
@<TRIPOS>SUBSTRUCTURE
     1 N45         1 TEMP              0 ****  ****    0 ROOT
