@<TRIPOS>MOLECULE
N47
   56    58     1     0     0
SMALL
No Charge or Current Charge


@<TRIPOS>ATOM
      1 N            7.1540    17.9010    25.8370 nu         1 N47      -0.936100
      2 C            5.7270    17.5390    25.9410 c3         1 N47       0.228100
      3 C12          6.1220     6.6490    26.6060 c5         1 N47       0.159800
      4 C11          6.8620     6.6850    25.2450 c5         1 N47      -0.079400
      5 C10          8.3580     6.4590    25.6300 c5         1 N47      -0.079400
      6 C9           8.3420     6.3940    27.1820 c5         1 N47       0.159800
      7 N3           7.1490     7.2050    27.5090 n3         1 N47      -0.719600
      8 C8           6.7630     7.2560    28.9390 c3         1 N47       0.174800
      9 C7           7.7990     7.9390    29.8600 c3         1 N47      -0.071400
     10 C6           8.0650     9.4180    29.5130 c3         1 N47       0.168600
     11 O            6.8630    10.1640    29.7750 os         1 N47      -0.327100
     12 C5           6.7680    11.5270    29.5500 ca         1 N47       0.158100
     13 C4           7.8630    12.2770    29.0630 ca         1 N47      -0.236000
     14 C13          5.5370    12.1700    29.8230 ca         1 N47       0.074100
     15 C14          3.1940    11.9830    30.6010 c3         1 N47       0.146900
     16 C15          5.4190    13.5610    29.6080 ca         1 N47      -0.143000
     17 C16          6.5160    14.2930    29.1210 ca         1 N47      -0.145000
     18 C3           7.7360    13.6540    28.8340 ca         1 N47       0.329000
     19 C2           9.0490    15.5080    27.6380 ca         1 N47       0.427900
     20 N1           7.9810    16.1240    27.1080 nb         1 N47      -0.314000
     21 N4          10.3340    15.8720    27.5040 nb         1 N47      -0.293000
     22 C17         10.5740    16.9810    26.7800 ca         1 N47       0.196300
     23 C18         12.0210    17.4090    26.6310 c3         1 N47      -0.151400
     24 C19          9.5260    17.7070    26.1970 ca         1 N47      -0.352000
     25 C1           8.2300    17.2290    26.3920 ca         1 N47       0.421900
     26 H1           7.3890    18.7360    25.2990 hn         1 N47       0.497000
     27 H2           5.1060    18.2620    25.3950 h1         1 N47       0.040367
     28 H3           5.5510    16.5420    25.5160 h1         1 N47       0.040367
     29 H4           5.4070    17.5310    26.9920 h1         1 N47       0.040367
     30 H6           5.8550     5.6200    26.8880 h1         1 N47       0.033200
     31 H7           6.7290     7.6560    24.7540 hc         1 N47       0.045450
     32 H8           6.4840     5.9210    24.5560 hc         1 N47       0.045450
     33 H9           8.7690     5.5420    25.1940 hc         1 N47       0.045450
     34 H10          8.9800     7.2910    25.2780 hc         1 N47       0.045450
     35 H11          8.2250     5.3580    27.5320 h1         1 N47       0.033200
     36 H12          9.2660     6.8000    27.6150 h1         1 N47       0.033200
     37 H14          5.8090     7.7930    29.0400 h1         1 N47       0.038200
     38 H15          6.5910     6.2360    29.3110 h1         1 N47       0.038200
     39 H16          7.4480     7.8760    30.8970 hc         1 N47       0.048200
     40 H17          8.7440     7.3870    29.8230 hc         1 N47       0.048200
     41 H18          8.3610     9.5040    28.4590 h1         1 N47       0.037700
     42 H19          8.8890     9.7890    30.1370 h1         1 N47       0.037700
     43 H20          8.8130    11.8000    28.8480 ha         1 N47       0.116000
     44 H21          2.5090    11.2060    30.9620 h1         1 N47       0.035700
     45 H22          3.2800    12.7490    31.3820 h1         1 N47       0.035700
     46 H23          2.7510    12.4380    29.7060 h1         1 N47       0.035700
     47 H24          4.4940    14.0910    29.8170 ha         1 N47       0.114000
     48 H25          6.4130    15.3650    28.9860 ha         1 N47       0.147000
     49 H27         12.6740    16.5470    26.4500 hc         1 N47       0.053033
     50 H28         12.1480    18.1030    25.7920 hc         1 N47       0.053033
     51 H29         12.3730    17.9140    27.5390 hc         1 N47       0.053033
     52 H30          9.7170    18.6040    25.6160 ha         1 N47       0.127000
     53 N2           8.8540    14.3440    28.3630 nu         1 N47      -0.929900
     54 O1           4.4800    11.4130    30.3010 os         1 N47      -0.323100
     55 H5           5.2020     7.2510    26.5920 h1         1 N47       0.033200
     56 H26          9.7300    13.8470    28.5150 hn         1 N47       0.508000
@<TRIPOS>BOND
     1     1     2 1   
     2     1    25 1   
     3     1    26 1   
     4     2    27 1   
     5     2    28 1   
     6     2    29 1   
     7     3     4 1   
     8     3     7 1   
     9     3    30 1   
    10     3    55 1   
    11     4     5 1   
    12     4    31 1   
    13     4    32 1   
    14     5     6 1   
    15     5    33 1   
    16     5    34 1   
    17     6     7 1   
    18     6    35 1   
    19     6    36 1   
    20     7     8 1   
    21     8     9 1   
    22     8    37 1   
    23     8    38 1   
    24     9    10 1   
    25     9    39 1   
    26     9    40 1   
    27    10    11 1   
    28    10    41 1   
    29    10    42 1   
    30    11    12 1   
    31    12    13 ar  
    32    12    14 ar  
    33    13    18 ar  
    34    13    43 1   
    35    14    16 ar  
    36    14    54 1   
    37    15    44 1   
    38    15    45 1   
    39    15    46 1   
    40    15    54 1   
    41    16    17 ar  
    42    16    47 1   
    43    17    18 ar  
    44    17    48 1   
    45    18    53 1   
    46    19    20 ar  
    47    19    21 ar  
    48    19    53 1   
    49    20    25 ar  
    50    21    22 ar  
    51    22    23 1   
    52    22    24 ar  
    53    23    49 1   
    54    23    50 1   
    55    23    51 1   
    56    24    25 ar  
    57    24    52 1   
    58    53    56 1   
@<TRIPOS>SUBSTRUCTURE
     1 N47         1 TEMP              0 ****  ****    0 ROOT
