@<TRIPOS>MOLECULE
N47
   56    58     1     0     0
SMALL
bcc


@<TRIPOS>ATOM
      1 N            7.2090    18.2370    26.5990 nu         1 N47      -0.880900
      2 C            5.8530    17.8900    26.9400 c3         1 N47       0.228100
      3 C12          6.0790     6.8270    26.9940 c5         1 N47       0.159800
      4 C11          6.6750     6.7290    25.5890 c5         1 N47      -0.079400
      5 C10          8.1980     6.6400    25.8270 c5         1 N47      -0.079400
      6 C9           8.3410     6.6500    27.3500 c5         1 N47       0.159800
      7 N3           7.1600     7.3620    27.8000 n3         1 N47      -0.719600
      8 C8           6.9100     7.2950    29.2200 c3         1 N47       0.174800
      9 C7           7.9470     8.0450    30.0470 c3         1 N47      -0.071400
     10 C6           8.1470     9.4820    29.6180 c3         1 N47       0.145400
     11 O            6.9100    10.1610    29.7570 os         1 N47      -0.303900
     12 C5           6.8040    11.4170    29.2940 ca         1 N47       0.158100
     13 C4           7.8640    12.1710    28.8270 ca         1 N47      -0.254000
     14 C13          5.5060    11.9670    29.3060 ca         1 N47       0.074100
     15 C14          3.2170    11.6820    29.8230 c3         1 N47       0.123700
     16 C15          5.3330    13.2550    28.8380 ca         1 N47      -0.161000
     17 C16          6.4010    14.0180    28.3610 ca         1 N47      -0.163000
     18 C3           7.6800    13.4820    28.3540 ca         1 N47       0.190600
     19 C2           9.0290    15.3810    27.4040 ca         1 N47       0.953900
     20 N1           7.9970    16.1960    27.2570 nb         1 N47      -0.840000
     21 N4          10.3030    15.6420    27.0990 nb         1 N47      -0.819000
     22 C17         10.5510    16.8520    26.5940 ca         1 N47       0.524600
     23 C18         11.9750    17.1700    26.2530 c3         1 N47      -0.151400
     24 C19          9.5550    17.7840    26.3920 ca         1 N47      -0.500600
     25 C1           8.2500    17.4050    26.7500 ca         1 N47       0.750200
     26 H1           7.3830    19.1410    26.1940 hn         1 N47       0.441800
     27 H2           5.2190    18.7460    26.7230 h1         1 N47       0.040367
     28 H3           5.4890    17.0390    26.3630 h1         1 N47       0.040367
     29 H4           5.7490    17.6460    27.9990 h1         1 N47       0.040367
     30 H6           5.7690     5.8270    27.3450 h1         1 N47       0.033200
     31 H7           6.4270     7.6110    24.9970 hc         1 N47       0.045450
     32 H8           6.2850     5.8640    25.0530 hc         1 N47       0.045450
     33 H9           8.6400     5.7440    25.3920 hc         1 N47       0.045450
     34 H10          8.7090     7.4970    25.3870 hc         1 N47       0.045450
     35 H11          8.3620     5.6160    27.7380 h1         1 N47       0.033200
     36 H12          9.2590     7.1380    27.6840 h1         1 N47       0.033200
     37 H14          5.9230     7.7230    29.4100 h1         1 N47       0.038200
     38 H15          6.8650     6.2480    29.5710 h1         1 N47       0.038200
     39 H16          7.6530     8.0080    31.0990 hc         1 N47       0.048200
     40 H17          8.9190     7.5480    29.9920 hc         1 N47       0.048200
     41 H18          8.4840     9.5230    28.5770 h1         1 N47       0.037700
     42 H19          8.9150     9.9570    30.2390 h1         1 N47       0.037700
     43 H20          8.8640    11.7550    28.8260 ha         1 N47       0.134000
     44 H21          2.5880    10.9020    30.2440 h1         1 N47       0.035700
     45 H22          3.1460    12.5720    30.4560 h1         1 N47       0.035700
     46 H23          2.8410    11.9340    28.8260 h1         1 N47       0.035700
     47 H24          4.3490    13.7040    28.8240 ha         1 N47       0.132000
     48 H25          6.2180    15.0170    28.0040 ha         1 N47       0.165000
     49 H27         12.6210    16.3130    26.4330 hc         1 N47       0.053033
     50 H28         12.0700    17.4640    25.2070 hc         1 N47       0.053033
     51 H29         12.3380    18.0060    26.8530 hc         1 N47       0.053033
     52 H30          9.7700    18.7630    25.9840 ha         1 N47       0.145000
     53 N2           8.8310    14.1330    27.9170 nu         1 N47      -0.736300
     54 O1           4.5290    11.1650    29.7820 os         1 N47      -0.299900
     55 H5           5.2000     7.4740    27.0440 h1         1 N47       0.033200
     56 H26          9.6830    13.5990    27.9850 hn         1 N47       0.452800
@<TRIPOS>BOND
     1     1     2 1   
     2     1    25 1   
     3     1    26 1   
     4     2    27 1   
     5     2    28 1   
     6     2    29 1   
     7     3     4 1   
     8     3     7 1   
     9     3    30 1   
    10     3    55 1   
    11     4     5 1   
    12     4    31 1   
    13     4    32 1   
    14     5     6 1   
    15     5    33 1   
    16     5    34 1   
    17     6     7 1   
    18     6    35 1   
    19     6    36 1   
    20     7     8 1   
    21     8     9 1   
    22     8    37 1   
    23     8    38 1   
    24     9    10 1   
    25     9    39 1   
    26     9    40 1   
    27    10    11 1   
    28    10    41 1   
    29    10    42 1   
    30    11    12 1   
    31    12    13 ar  
    32    12    14 ar  
    33    13    18 ar  
    34    13    43 1   
    35    14    16 ar  
    36    14    54 1   
    37    15    44 1   
    38    15    45 1   
    39    15    46 1   
    40    15    54 1   
    41    16    17 ar  
    42    16    47 1   
    43    17    18 ar  
    44    17    48 1   
    45    18    53 1   
    46    19    20 ar  
    47    19    21 ar  
    48    19    53 1   
    49    20    25 ar  
    50    21    22 ar  
    51    22    23 1   
    52    22    24 ar  
    53    23    49 1   
    54    23    50 1   
    55    23    51 1   
    56    24    25 ar  
    57    24    52 1   
    58    53    56 1   
@<TRIPOS>SUBSTRUCTURE
     1 N47         1 TEMP              0 ****  ****    0 ROOT
