@<TRIPOS>MOLECULE
N48
   44    46     1     0     0
SMALL
bcc


@<TRIPOS>ATOM
      1 O3          -5.4320    -2.1850     0.2650 o          1 N48      -0.620500
      2 C14         -4.4890    -1.4590     0.5580 c          1 N48       0.709700
      3 C13         -4.2480    -1.0100     1.9110 cc         1 N48      -0.259200
      4 C12         -3.2150    -0.2120     2.2540 cd         1 N48       0.040600
      5 C18         -3.0140     0.2260     3.6680 c3         1 N48      -0.067900
      6 N2          -3.5910    -1.0210    -0.4030 n          1 N48      -0.348000
      7 C15         -3.7920    -1.4460    -1.7790 c3         1 N48       0.066300
      8 C16         -2.5220    -0.2050    -0.1020 ca         1 N48       0.151600
      9 C17         -1.6480     0.2120    -1.1140 ca         1 N48      -0.280000
     10 C1          -0.5630     1.0170    -0.8170 ca         1 N48       0.175100
     11 O            0.3230     1.4500    -1.7150 os         1 N48      -0.327900
     12 C            0.2480     0.9810    -3.0500 c3         1 N48       0.126700
     13 C11         -2.3050     0.2150     1.2250 ca         1 N48      -0.163800
     14 C10         -1.2110     1.0430     1.4950 ca         1 N48      -0.003000
     15 C2          -0.3410     1.4400     0.5100 ca         1 N48       0.009600
     16 N            0.7810     2.2440     0.8270 nu         1 N48      -0.659500
     17 S            2.1480     1.4800     1.3820 sy         1 N48       1.283200
     18 O1           3.1750     2.5020     1.4470 o          1 N48      -0.599800
     19 O2           1.7730     0.7310     2.5660 o          1 N48      -0.599800
     20 C3           2.5790     0.3050     0.1210 ca         1 N48      -0.274500
     21 C8           3.4120     0.7050    -0.9140 ca         1 N48      -0.032500
     22 C7           3.6860    -0.1820    -1.9380 ca         1 N48      -0.117500
     23 C6           3.1130    -1.4540    -1.9160 ca         1 N48       0.031000
     24 C9           3.3850    -2.3670    -2.9810 cg         1 N48       0.220800
     25 N1           3.5990    -3.1030    -3.8400 n1         1 N48      -0.342800
     26 C5           2.2810    -1.8480    -0.8710 ca         1 N48      -0.117500
     27 C4           2.0150    -0.9620     0.1600 ca         1 N48      -0.032500
     28 H1          -4.9540    -1.3530     2.6550 ha         1 N48       0.162000
     29 H2          -3.7890    -0.1790     4.3160 hc         1 N48       0.056700
     30 H3          -2.0470    -0.1020     4.0520 hc         1 N48       0.056700
     31 H4          -3.0400     1.3140     3.7520 hc         1 N48       0.056700
     32 H5          -4.6640    -2.0850    -1.8270 h1         1 N48       0.056367
     33 H6          -3.9540    -0.5870    -2.4290 h1         1 N48       0.056367
     34 H7          -2.9300    -2.0070    -2.1380 h1         1 N48       0.056367
     35 H8          -1.8160    -0.0950    -2.1340 ha         1 N48       0.149000
     36 H9           1.0990     1.4100    -3.5710 h1         1 N48       0.049367
     37 H10          0.3160    -0.1080    -3.0950 h1         1 N48       0.049367
     38 H11         -0.6710     1.3060    -3.5420 h1         1 N48       0.049367
     39 H12         -1.0350     1.3880     2.5050 ha         1 N48       0.166000
     40 H13          1.0030     2.9710     0.1530 hn         1 N48       0.444800
     41 H14          3.8490     1.6940    -0.9330 ha         1 N48       0.162000
     42 H15          4.3370     0.1090    -2.7500 ha         1 N48       0.149500
     43 H16          1.8470    -2.8380    -0.8590 ha         1 N48       0.149500
     44 H17          1.3790    -1.2720     0.9760 ha         1 N48       0.162000
@<TRIPOS>BOND
     1     1     2 2   
     2     2     3 1   
     3     2     6 1   
     4     3     4 2   
     5     3    28 1   
     6     4     5 1   
     7     4    13 1   
     8     5    29 1   
     9     5    30 1   
    10     5    31 1   
    11     6     7 1   
    12     6     8 1   
    13     7    32 1   
    14     7    33 1   
    15     7    34 1   
    16     8     9 ar  
    17     8    13 ar  
    18     9    10 ar  
    19     9    35 1   
    20    10    11 1   
    21    10    15 ar  
    22    11    12 1   
    23    12    36 1   
    24    12    37 1   
    25    12    38 1   
    26    13    14 ar  
    27    14    15 ar  
    28    14    39 1   
    29    15    16 1   
    30    16    17 1   
    31    16    40 1   
    32    17    18 2   
    33    17    19 2   
    34    17    20 1   
    35    20    21 ar  
    36    20    27 ar  
    37    21    22 ar  
    38    21    41 1   
    39    22    23 ar  
    40    22    42 1   
    41    23    24 1   
    42    23    26 ar  
    43    24    25 3   
    44    26    27 ar  
    45    26    43 1   
    46    27    44 1   
@<TRIPOS>SUBSTRUCTURE
     1 N48         1 TEMP              0 ****  ****    0 ROOT
