@<TRIPOS>MOLECULE
N48
   44    46     1     0     0
SMALL
No Charge or Current Charge


@<TRIPOS>ATOM
      1 O3          -5.2480    -2.4290     0.0020 o          1 N48      -0.545000
      2 C14         -4.2640    -1.7210     0.1700 c          1 N48       0.567200
      3 C13         -3.4940    -1.7780     1.4160 cc         1 N48      -0.309200
      4 C12         -2.3810    -1.0150     1.6730 cd         1 N48       0.040600
      5 C18         -1.6620    -1.1650     2.9950 c3         1 N48      -0.067900
      6 N2          -3.7950    -0.8040    -0.8000 n          1 N48      -0.281000
      7 C15         -4.5580    -0.6720    -2.0710 c3         1 N48       0.066300
      8 C16         -2.6260     0.0180    -0.5850 ca         1 N48       0.151600
      9 C17         -2.1520     0.8960    -1.5860 ca         1 N48      -0.262000
     10 C1          -1.0020     1.6850    -1.3740 ca         1 N48       0.175100
     11 O           -0.5160     2.5470    -2.3470 os         1 N48      -0.351100
     12 C           -1.1460     2.7060    -3.6320 c3         1 N48       0.149900
     13 C11         -1.9210    -0.0780     0.6340 ca         1 N48      -0.163800
     14 C10         -0.7760     0.7230     0.8440 ca         1 N48       0.015000
     15 C2          -0.3030     1.6010    -0.1490 ca         1 N48       0.148000
     16 N            0.8520     2.3820     0.0420 nu         1 N48      -0.853100
     17 S            2.2240     2.0660     0.9600 sy         1 N48       1.141600
     18 O1           3.2110     2.9680     0.3620 o          1 N48      -0.529000
     19 O2           1.7810     2.1960     2.3510 o          1 N48      -0.529000
     20 C3           2.6510     0.3610     0.5800 ca         1 N48      -0.274500
     21 C8           3.1880     0.0390    -0.6830 ca         1 N48      -0.014500
     22 C7           3.4990    -1.2960    -0.9950 ca         1 N48      -0.099500
     23 C6           3.2760    -2.3170    -0.0510 ca         1 N48       0.031000
     24 C9           3.5920    -3.6820    -0.3730 cg         1 N48       0.310000
     25 N1           3.8450    -4.7940    -0.6270 n1         1 N48      -0.432000
     26 C5           2.7410    -1.9930     1.2110 ca         1 N48      -0.099500
     27 C4           2.4290    -0.6600     1.5280 ca         1 N48      -0.014500
     28 H1          -3.8750    -2.4870     2.1410 ha         1 N48       0.212000
     29 H2          -2.1440    -1.9080     3.6410 hc         1 N48       0.056700
     30 H3          -0.6260    -1.4910     2.8440 hc         1 N48       0.056700
     31 H4          -1.6460    -0.2180     3.5450 hc         1 N48       0.056700
     32 H5          -5.4560    -1.3000    -2.0850 h1         1 N48       0.056367
     33 H6          -4.8720     0.3710    -2.2050 h1         1 N48       0.056367
     34 H7          -3.9200    -0.9680    -2.9140 h1         1 N48       0.056367
     35 H8          -2.6730     0.9680    -2.5320 ha         1 N48       0.131000
     36 H9          -0.5950     3.4350    -4.2380 h1         1 N48       0.049367
     37 H10         -1.1630     1.7550    -4.1790 h1         1 N48       0.049367
     38 H11         -2.1760     3.0680    -3.5190 h1         1 N48       0.049367
     39 H12         -0.2440     0.6690     1.7860 ha         1 N48       0.148000
     40 H13          1.1710     2.9110    -0.7610 hn         1 N48       0.500000
     41 H14          3.3600     0.8170    -1.4260 ha         1 N48       0.144000
     42 H15          3.9110    -1.5350    -1.9730 ha         1 N48       0.131500
     43 H16          2.5650    -2.7740     1.9480 ha         1 N48       0.131500
     44 H17          2.0160    -0.4290     2.5090 ha         1 N48       0.144000
@<TRIPOS>BOND
     1     1     2 2   
     2     2     3 1   
     3     2     6 1   
     4     3     4 2   
     5     3    28 1   
     6     4     5 1   
     7     4    13 1   
     8     5    29 1   
     9     5    30 1   
    10     5    31 1   
    11     6     7 1   
    12     6     8 1   
    13     7    32 1   
    14     7    33 1   
    15     7    34 1   
    16     8     9 ar  
    17     8    13 ar  
    18     9    10 ar  
    19     9    35 1   
    20    10    11 1   
    21    10    15 ar  
    22    11    12 1   
    23    12    36 1   
    24    12    37 1   
    25    12    38 1   
    26    13    14 ar  
    27    14    15 ar  
    28    14    39 1   
    29    15    16 1   
    30    16    17 1   
    31    16    40 1   
    32    17    18 2   
    33    17    19 2   
    34    17    20 1   
    35    20    21 ar  
    36    20    27 ar  
    37    21    22 ar  
    38    21    41 1   
    39    22    23 ar  
    40    22    42 1   
    41    23    24 1   
    42    23    26 ar  
    43    24    25 3   
    44    26    27 ar  
    45    26    43 1   
    46    27    44 1   
@<TRIPOS>SUBSTRUCTURE
     1 N48         1 TEMP              0 ****  ****    0 ROOT
