@<TRIPOS>MOLECULE
N49
   53    56     1     0     0
SMALL
No Charge or Current Charge


@<TRIPOS>ATOM
      1 C01         11.8560    -7.8650    -2.6320 ca         1 N49      -0.076000
      2 C02         12.8160    -6.9110    -2.9940 ca         1 N49      -0.133000
      3 C03         12.8150    -5.6510    -2.3780 ca         1 N49      -0.048000
      4 C04         11.8410    -5.3290    -1.4060 ca         1 N49      -0.165600
      5 C05         10.8400    -6.2680    -1.0750 ca         1 N49       0.028200
      6 C06         10.8820    -7.5490    -1.6730 ca         1 N49      -0.113000
      7 C07         11.8830    -3.9950    -0.7100 c          1 N49       0.564600
      8 C08          9.9470    -4.7070     0.6220 cc         1 N49      -0.010400
      9 C09          9.8110    -5.8860    -0.0810 cd         1 N49      -0.124400
     10 C10          8.6730    -6.7810     0.2410 ca         1 N49      -0.024800
     11 C12          8.3650    -7.0230     1.5980 ca         1 N49      -0.120000
     12 C13          7.2930    -7.8580     1.9700 ca         1 N49       0.260000
     13 C14          6.5170    -8.4580     0.9680 ca         1 N49      -0.133000
     14 C15          6.7790    -8.2000    -0.3870 ca         1 N49      -0.094000
     15 C16          7.8320    -7.3500    -0.7570 ca         1 N49       0.095100
     16 C17          8.1020    -5.7650    -2.5670 ca         1 N49       0.124100
     17 C18          7.4550    -4.6860    -1.9310 ca         1 N49      -0.132500
     18 C19          7.6500    -3.3750    -2.4020 ca         1 N49      -0.081000
     19 C20          8.4820    -3.1440    -3.5110 ca         1 N49       0.101000
     20 C21          9.1120    -4.2210    -4.1580 ca         1 N49      -0.081000
     21 C22          8.9170    -5.5320    -3.6890 ca         1 N49      -0.132500
     22 C23          6.5460    -5.5770     4.2580 c3         1 N49      -0.347400
     23 C24          5.0470    -5.5950     3.8670 c3         1 N49      -0.066100
     24 N01         10.9460    -3.7770     0.3260 n          1 N49      -0.286000
     25 N02          6.9710    -8.1250     3.2990 nu         1 N49      -0.882100
     26 O01         12.7100    -3.1420    -1.0160 o          1 N49      -0.552000
     27 O02          7.9700    -7.0540    -2.0980 os         1 N49      -0.250200
     28 O03          8.6790    -7.0910     4.8180 o          1 N49      -0.528000
     29 O04          6.4070    -7.8210     5.6920 o          1 N49      -0.528000
     30 S01          7.2280    -7.1970     4.6530 s6         1 N49       1.207100
     31 Cl01         8.7340    -1.5030    -4.0910 cl         1 N49      -0.207000
     32 H1          11.8680    -8.8510    -3.0910 ha         1 N49       0.116000
     33 H2          13.5720    -7.1530    -3.7380 ha         1 N49       0.119000
     34 H3          13.5830    -4.9280    -2.6490 ha         1 N49       0.137000
     35 H4          10.1660    -8.3160    -1.3960 ha         1 N49       0.125000
     36 H5           9.2680    -4.3640     1.3960 h4         1 N49       0.198000
     37 H6          10.2950    -2.4780     1.8890 h1         1 N49       0.055367
     38 H7          12.0160    -2.3320     1.4520 h1         1 N49       0.055367
     39 H8          10.7580    -1.6670     0.3680 h1         1 N49       0.055367
     40 H9           8.9980    -6.5860     2.3620 ha         1 N49       0.155000
     41 H10          5.6900    -9.1110     1.2360 ha         1 N49       0.122000
     42 H11          6.1460    -8.6390    -1.1550 ha         1 N49       0.137000
     43 H12          6.8140    -4.8580    -1.0700 ha         1 N49       0.132500
     44 H13          7.1610    -2.5390    -1.9080 ha         1 N49       0.133500
     45 H14          9.7540    -4.0380    -5.0160 ha         1 N49       0.133500
     46 H15          9.4150    -6.3650    -4.1770 ha         1 N49       0.132500
     47 H16          6.7020    -4.9630     5.1520 h1         1 N49       0.101700
     48 H17          7.1530    -5.1790     3.4390 h1         1 N49       0.101700
     49 H18          4.6950    -4.5760     3.6650 hc         1 N49       0.048367
     50 H19          4.8800    -6.1930     2.9630 hc         1 N49       0.048367
     51 H20          4.4330    -6.0100     4.6760 hc         1 N49       0.048367
     52 H21          6.1220    -8.6400     3.4860 hn         1 N49       0.496000
     53 C11         11.0050    -2.4880     1.0530 c3         1 N49       0.083300
@<TRIPOS>BOND
     1     1     2 ar  
     2     1     6 ar  
     3     1    32 1   
     4     2     3 ar  
     5     2    33 1   
     6     3     4 ar  
     7     3    34 1   
     8     4     5 ar  
     9     4     7 1   
    10     5     6 ar  
    11     5     9 1   
    12     6    35 1   
    13     7    24 1   
    14     7    26 2   
    15     8     9 2   
    16     8    24 1   
    17     8    36 1   
    18     9    10 1   
    19    10    11 ar  
    20    10    15 ar  
    21    11    12 ar  
    22    11    40 1   
    23    12    13 ar  
    24    12    25 1   
    25    13    14 ar  
    26    13    41 1   
    27    14    15 ar  
    28    14    42 1   
    29    15    27 1   
    30    16    17 ar  
    31    16    21 ar  
    32    16    27 1   
    33    17    18 ar  
    34    17    43 1   
    35    18    19 ar  
    36    18    44 1   
    37    19    20 ar  
    38    19    31 1   
    39    20    21 ar  
    40    20    45 1   
    41    21    46 1   
    42    22    23 1   
    43    22    30 1   
    44    22    47 1   
    45    22    48 1   
    46    23    49 1   
    47    23    50 1   
    48    23    51 1   
    49    24    53 1   
    50    25    30 1   
    51    25    52 1   
    52    28    30 2   
    53    29    30 2   
    54    37    53 1   
    55    38    53 1   
    56    39    53 1   
@<TRIPOS>SUBSTRUCTURE
     1 N49         1 TEMP              0 ****  ****    0 ROOT
