@<TRIPOS>MOLECULE
N49
   53    56     1     0     0
SMALL
abcg2


@<TRIPOS>ATOM
      1 C01         11.9930    -8.2270    -2.2150 ca         1 N49      -0.076000
      2 C02         12.9780    -7.3450    -2.6800 ca         1 N49      -0.133000
      3 C03         12.9490    -6.0220    -2.2930 ca         1 N49      -0.048000
      4 C04         11.9400    -5.5520    -1.4410 ca         1 N49      -0.165600
      5 C05         10.9400    -6.4340    -0.9750 ca         1 N49       0.028200
      6 C06         10.9930    -7.7820    -1.3770 ca         1 N49      -0.113000
      7 C07         11.9290    -4.1370    -1.0710 c          1 N49       0.564600
      8 C08          9.9520    -4.6140     0.2360 cc         1 N49      -0.010400
      9 C09          9.9010    -5.9170    -0.1240 cd         1 N49      -0.124400
     10 C10          8.7190    -6.7300     0.2510 ca         1 N49      -0.024800
     11 C12          8.4940    -7.1100     1.5720 ca         1 N49      -0.120000
     12 C13          7.3680    -7.8550     1.9210 ca         1 N49       0.260000
     13 C14          6.4710    -8.2520     0.9320 ca         1 N49      -0.133000
     14 C15          6.6880    -7.8890    -0.3890 ca         1 N49      -0.094000
     15 C16          7.7910    -7.1200    -0.7240 ca         1 N49       0.095100
     16 C17          8.0980    -5.4490    -2.3740 ca         1 N49       0.124100
     17 C18          7.3240    -4.4750    -1.7530 ca         1 N49      -0.132500
     18 C19          7.5180    -3.1380    -2.0710 ca         1 N49      -0.081000
     19 C20          8.4740    -2.7950    -3.0170 ca         1 N49       0.101000
     20 C21          9.2230    -3.7660    -3.6670 ca         1 N49      -0.081000
     21 C22          9.0310    -5.1030    -3.3420 ca         1 N49      -0.132500
     22 C23          6.3650    -5.7540     4.1560 c3         1 N49      -0.347400
     23 C24          4.8820    -6.0050     3.9380 c3         1 N49      -0.066100
     24 N01         10.9250    -3.7520    -0.2010 n          1 N49      -0.286000
     25 N02          7.1220    -8.2550     3.2610 nu         1 N49      -0.882100
     26 O01         12.7430    -3.3050    -1.4850 o          1 N49      -0.552000
     27 O02          7.9720    -6.7880    -2.0580 os         1 N49      -0.250200
     28 O03          8.6730    -6.8720     4.6840 o          1 N49      -0.528000
     29 O04          6.6410    -7.9300     5.6530 o          1 N49      -0.528000
     30 S01          7.2810    -7.2350     4.5590 s6         1 N49       1.207100
     31 CL01         8.7500    -1.1050    -3.3870 cl         1 N49      -0.207000
     32 H1          12.0170    -9.2670    -2.5160 ha         1 N49       0.116000
     33 H2          13.7580    -7.7030    -3.3390 ha         1 N49       0.119000
     34 H3          13.7000    -5.3250    -2.6400 ha         1 N49       0.137000
     35 H4          10.2360    -8.4690    -1.0230 ha         1 N49       0.125000
     36 H5           9.1850    -4.1680     0.8510 h4         1 N49       0.198000
     37 H6          10.0440    -2.2030     0.8740 h1         1 N49       0.055367
     38 H7          11.8000    -2.0380     0.6410 h1         1 N49       0.055367
     39 H8          10.6980    -1.7260    -0.7100 h1         1 N49       0.055367
     40 H9           9.2140    -6.8300     2.3260 ha         1 N49       0.155000
     41 H10          5.5950    -8.8320     1.1980 ha         1 N49       0.122000
     42 H11          5.9880    -8.1760    -1.1630 ha         1 N49       0.137000
     43 H12          6.6000    -4.7540    -0.9990 ha         1 N49       0.132500
     44 H13          6.9370    -2.3710    -1.5780 ha         1 N49       0.133500
     45 H14          9.9650    -3.4850    -4.4020 ha         1 N49       0.133500
     46 H15          9.6310    -5.8740    -3.8060 ha         1 N49       0.132500
     47 H16          6.5580    -5.0860     4.9970 h1         1 N49       0.101700
     48 H17          6.8520    -5.3390     3.2730 h1         1 N49       0.101700
     49 H18          4.3950    -5.0570     3.7050 hc         1 N49       0.048367
     50 H19          4.7120    -6.6850     3.1030 hc         1 N49       0.048367
     51 H20          4.4170    -6.4210     4.8310 hc         1 N49       0.048367
     52 H21          6.3070    -8.8470     3.3760 hn         1 N49       0.496000
     53 C11         10.8640    -2.3400     0.1750 c3         1 N49       0.083300
@<TRIPOS>BOND
     1     1     2 ar  
     2     1     6 ar  
     3     1    32 1   
     4     2     3 ar  
     5     2    33 1   
     6     3     4 ar  
     7     3    34 1   
     8     4     5 ar  
     9     4     7 1   
    10     5     6 ar  
    11     5     9 1   
    12     6    35 1   
    13     7    24 1   
    14     7    26 2   
    15     8     9 2   
    16     8    24 1   
    17     8    36 1   
    18     9    10 1   
    19    10    11 ar  
    20    10    15 ar  
    21    11    12 ar  
    22    11    40 1   
    23    12    13 ar  
    24    12    25 1   
    25    13    14 ar  
    26    13    41 1   
    27    14    15 ar  
    28    14    42 1   
    29    15    27 1   
    30    16    17 ar  
    31    16    21 ar  
    32    16    27 1   
    33    17    18 ar  
    34    17    43 1   
    35    18    19 ar  
    36    18    44 1   
    37    19    20 ar  
    38    19    31 1   
    39    20    21 ar  
    40    20    45 1   
    41    21    46 1   
    42    22    23 1   
    43    22    30 1   
    44    22    47 1   
    45    22    48 1   
    46    23    49 1   
    47    23    50 1   
    48    23    51 1   
    49    24    53 1   
    50    25    30 1   
    51    25    52 1   
    52    28    30 2   
    53    29    30 2   
    54    37    53 1   
    55    38    53 1   
    56    39    53 1   
@<TRIPOS>SUBSTRUCTURE
     1 N49         1 TEMP              0 ****  ****    0 ROOT
