@<TRIPOS>MOLECULE
N4A
   64    68     1     0     0
SMALL
abcg2


@<TRIPOS>ATOM
      1 O4          -5.0190    -0.6690    -2.0920 o          1 N4A      -0.530500
      2 S1          -4.4300     0.6360    -1.8570 sy         1 N4A       1.136600
      3 O3          -5.2220     1.8410    -2.0260 o          1 N4A      -0.530500
      4 C18         -3.6880     0.6260    -0.2530 ca         1 N4A      -0.299500
      5 C23         -3.4130     1.8570     0.3810 ca         1 N4A      -0.036000
      6 C22         -2.7430     1.8550     1.5690 ca         1 N4A      -0.105000
      7 C21         -2.2960     0.6470     2.1550 ca         1 N4A       0.002000
      8 C27         -1.5410     0.6300     3.3490 ca         1 N4A      -0.108000
      9 C26         -1.0730    -0.5510     3.8570 ca         1 N4A      -0.086000
     10 C25         -1.3510    -1.7720     3.2080 ca         1 N4A      -0.114000
     11 C24         -2.0950    -1.7880     2.0600 ca         1 N4A      -0.092000
     12 C20         -2.5780    -0.5810     1.5040 ca         1 N4A      -0.072000
     13 C19         -3.2960    -0.5680     0.2880 ca         1 N4A       0.019000
     14 N2          -3.1530     0.7860    -2.9280 nu         1 N4A      -0.840100
     15 C1          -2.1140    -0.1620    -2.8080 ca         1 N4A       0.120000
     16 C2          -0.9380     0.1120    -2.1020 ca         1 N4A       0.610300
     17 O1          -0.7700     1.3530    -1.6160 os         1 N4A      -0.374400
     18 C7           0.3300     1.6370    -0.8350 ca         1 N4A       0.131100
     19 C12          0.5710     0.9660     0.3550 ca         1 N4A      -0.115500
     20 C11          1.6540     1.3330     1.1290 ca         1 N4A      -0.068000
     21 C10          2.5140     2.3520     0.7260 ca         1 N4A      -0.157900
     22 C28          3.6700     2.7140     1.5890 ce         1 N4A       0.660800
     23 N4           4.7570     3.1980     0.9210 nv         1 N4A      -1.091200
     24 N3           3.5550     2.5850     2.8540 n2         1 N4A      -0.825100
     25 C9           2.2540     3.0140    -0.4710 ca         1 N4A      -0.068000
     26 C8           1.1620     2.6610    -1.2520 ca         1 N4A      -0.115500
     27 C5          -2.2320    -1.4380    -3.3440 ca         1 N4A       0.003000
     28 C4          -1.2510    -2.3920    -3.1300 ca         1 N4A      -0.206000
     29 C3          -0.1540    -1.9950    -2.3770 ca         1 N4A       0.622300
     30 N1           0.0060    -0.7740    -1.9200 nb         1 N4A      -0.806000
     31 O2           0.8090    -2.8940    -2.0850 os         1 N4A      -0.360400
     32 C6           1.6920    -2.5270    -1.0890 ca         1 N4A       0.124100
     33 C17          1.2910    -2.5960     0.2370 ca         1 N4A      -0.115500
     34 C16          2.1610    -2.1890     1.2310 ca         1 N4A      -0.070500
     35 C15          3.4290    -1.7050     0.9150 ca         1 N4A      -0.140900
     36 C29          4.3160    -1.2200     2.0070 ce         1 N4A       0.660800
     37 N6           4.1290    -1.6610     3.1910 n2         1 N4A      -0.821100
     38 N5           5.3070    -0.3630     1.6200 nv         1 N4A      -1.073200
     39 C14          3.8230    -1.6810    -0.4200 ca         1 N4A      -0.070500
     40 C13          2.9570    -2.0880    -1.4250 ca         1 N4A      -0.115500
     41 H1          -3.7310     2.7900    -0.0630 ha         1 N4A       0.135000
     42 H2          -2.5310     2.7920     2.0690 ha         1 N4A       0.122000
     43 H3          -1.3250     1.5670     3.8470 ha         1 N4A       0.124000
     44 H4          -0.4830    -0.5530     4.7640 ha         1 N4A       0.122000
     45 H5          -0.9740    -2.6980     3.6220 ha         1 N4A       0.120000
     46 H6          -2.3130    -2.7240     1.5600 ha         1 N4A       0.118000
     47 H7          -3.5150    -1.5090    -0.2000 ha         1 N4A       0.137000
     48 H8          -2.8540     1.7520    -3.0220 hn         1 N4A       0.498000
     49 H9          -0.0660     0.1560     0.6780 ha         1 N4A       0.134000
     50 H10          1.8460     0.8160     2.0590 ha         1 N4A       0.131500
     51 H11          4.8980     2.9370    -0.0410 hn         1 N4A       0.466000
     52 H12          5.6080     3.3410     1.4420 hn         1 N4A       0.466000
     53 H13          4.4210     2.8290     3.3280 hn         1 N4A       0.369400
     54 H14          2.8890     3.8250    -0.8030 ha         1 N4A       0.131500
     55 H15          0.9600     3.1830    -2.1790 ha         1 N4A       0.134000
     56 H16         -3.1130    -1.6910    -3.9180 ha         1 N4A       0.156000
     57 H17         -1.3430    -3.3970    -3.5140 ha         1 N4A       0.152000
     58 H18          0.2980    -2.9420     0.4930 ha         1 N4A       0.128000
     59 H19          1.8450    -2.2180     2.2650 ha         1 N4A       0.130000
     60 H20          4.7720    -1.2310     3.8500 hn         1 N4A       0.375400
     61 H21          5.1520     0.2230     0.8160 hn         1 N4A       0.455500
     62 H22          5.8200     0.1010     2.3530 hn         1 N4A       0.455500
     63 H23          4.8120    -1.3420    -0.6980 ha         1 N4A       0.130000
     64 H24          3.2650    -2.0470    -2.4620 ha         1 N4A       0.128000
@<TRIPOS>BOND
     1     1     2 2   
     2     2     3 2   
     3     2     4 1   
     4     2    14 1   
     5     4     5 ar  
     6     4    13 ar  
     7     5     6 ar  
     8     5    41 1   
     9     6     7 ar  
    10     6    42 1   
    11     7     8 ar  
    12     7    12 ar  
    13     8     9 ar  
    14     8    43 1   
    15     9    10 ar  
    16     9    44 1   
    17    10    11 ar  
    18    10    45 1   
    19    11    12 ar  
    20    11    46 1   
    21    12    13 ar  
    22    13    47 1   
    23    14    15 1   
    24    14    48 1   
    25    15    16 ar  
    26    15    27 ar  
    27    16    17 1   
    28    16    30 ar  
    29    17    18 1   
    30    18    19 ar  
    31    18    26 ar  
    32    19    20 ar  
    33    19    49 1   
    34    20    21 ar  
    35    20    50 1   
    36    21    22 1   
    37    21    25 ar  
    38    22    23 1   
    39    22    24 2   
    40    23    51 1   
    41    23    52 1   
    42    24    53 1   
    43    25    26 ar  
    44    25    54 1   
    45    26    55 1   
    46    27    28 ar  
    47    27    56 1   
    48    28    29 ar  
    49    28    57 1   
    50    29    30 ar  
    51    29    31 1   
    52    31    32 1   
    53    32    33 ar  
    54    32    40 ar  
    55    33    34 ar  
    56    33    58 1   
    57    34    35 ar  
    58    34    59 1   
    59    35    36 1   
    60    35    39 ar  
    61    36    37 2   
    62    36    38 1   
    63    37    60 1   
    64    38    61 1   
    65    38    62 1   
    66    39    40 ar  
    67    39    63 1   
    68    40    64 1   
@<TRIPOS>SUBSTRUCTURE
     1 N4A         1 TEMP              0 ****  ****    0 ROOT
