@<TRIPOS>MOLECULE
N4A
   64    68     1     0     0
SMALL
No Charge or Current Charge


@<TRIPOS>ATOM
      1 O4          -5.1040    -0.5490    -1.8040 o          1 N4A      -0.530500
      2 S1          -4.3840     0.7180    -1.6560 sy         1 N4A       1.136600
      3 O3          -5.0130     2.0200    -1.8860 o          1 N4A      -0.530500
      4 C18         -3.4470     0.7360    -0.1240 ca         1 N4A      -0.299500
      5 C23         -3.1040     1.9570     0.4940 ca         1 N4A      -0.036000
      6 C22         -2.3200     1.9560     1.6610 ca         1 N4A      -0.105000
      7 C21         -1.8620     0.7440     2.2080 ca         1 N4A       0.002000
      8 C27         -1.0520     0.7450     3.3590 ca         1 N4A      -0.108000
      9 C26         -0.5790    -0.4670     3.8900 ca         1 N4A      -0.086000
     10 C25         -0.9180    -1.6840     3.2740 ca         1 N4A      -0.114000
     11 C24         -1.7300    -1.6920     2.1270 ca         1 N4A      -0.092000
     12 C20         -2.2030    -0.4790     1.5900 ca         1 N4A      -0.072000
     13 C19         -3.0010    -0.4810     0.4310 ca         1 N4A       0.019000
     14 N2          -3.1950     0.6570    -2.8400 nu         1 N4A      -0.840100
     15 C1          -2.0940    -0.2330    -2.8250 ca         1 N4A       0.120000
     16 C2          -0.7520     0.2090    -2.6070 ca         1 N4A       0.610300
     17 O1          -0.5310     1.5620    -2.4650 os         1 N4A      -0.374400
     18 C7           0.2240     2.1080    -1.4470 ca         1 N4A       0.131100
     19 C12          0.4270     1.4430    -0.2220 ca         1 N4A      -0.115500
     20 C11          1.1780     2.0510     0.7980 ca         1 N4A      -0.068000
     21 C10          1.7450     3.3340     0.6150 ca         1 N4A      -0.157900
     22 C28          2.5090     3.9870     1.7270 ce         1 N4A       0.660800
     23 N4           3.4010     4.9480     1.4070 nv         1 N4A      -1.091200
     24 N3           2.4360     3.6160     2.9380 n2         1 N4A      -0.825100
     25 C9           1.5030     4.0060    -0.6070 ca         1 N4A      -0.068000
     26 C8           0.7530     3.3940    -1.6270 ca         1 N4A      -0.115500
     27 C5          -2.3030    -1.6160    -2.9620 ca         1 N4A       0.003000
     28 C4          -1.1990    -2.4770    -2.8580 ca         1 N4A      -0.206000
     29 C3           0.0750    -1.9440    -2.6250 ca         1 N4A       0.622300
     30 N1           0.3080    -0.6240    -2.5260 nb         1 N4A      -0.806000
     31 O2           1.1250    -2.8100    -2.4650 os         1 N4A      -0.360400
     32 C6           1.9310    -2.7770    -1.3480 ca         1 N4A       0.124100
     33 C17          1.4320    -2.3880    -0.0900 ca         1 N4A      -0.115500
     34 C16          2.2780    -2.3760     1.0330 ca         1 N4A      -0.070500
     35 C15          3.6380    -2.7480     0.9190 ca         1 N4A      -0.140900
     36 C29          4.5210    -2.7650     2.1330 ce         1 N4A       0.660800
     37 N6           4.0730    -2.7630     3.3200 n2         1 N4A      -0.821100
     38 N5           5.8580    -2.6840     1.9510 nv         1 N4A      -1.073200
     39 C14          4.1160    -3.1730    -0.3450 ca         1 N4A      -0.070500
     40 C13          3.2680    -3.1820    -1.4670 ca         1 N4A      -0.115500
     41 H1          -3.4310     2.9060     0.0720 ha         1 N4A       0.135000
     42 H2          -2.0550     2.9020     2.1280 ha         1 N4A       0.122000
     43 H3          -0.7820     1.6840     3.8380 ha         1 N4A       0.124000
     44 H4           0.0510    -0.4630     4.7770 ha         1 N4A       0.122000
     45 H5          -0.5500    -2.6220     3.6860 ha         1 N4A       0.120000
     46 H6          -1.9850    -2.6390     1.6570 ha         1 N4A       0.118000
     47 H7          -3.2540    -1.4270    -0.0460 ha         1 N4A       0.137000
     48 H8          -2.9430     1.6360    -2.9290 hn         1 N4A       0.498000
     49 H9           0.0010     0.4610    -0.0470 ha         1 N4A       0.134000
     50 H10          1.3210     1.5170     1.7350 ha         1 N4A       0.131500
     51 H11          3.6500     4.9840     0.4250 hn         1 N4A       0.466000
     52 H12          4.1760     5.0690     2.0480 hn         1 N4A       0.466000
     53 H13          2.8820     4.3340     3.5170 hn         1 N4A       0.369400
     54 H14          1.8820     5.0130    -0.7720 ha         1 N4A       0.131500
     55 H15          0.5750     3.9220    -2.5600 ha         1 N4A       0.134000
     56 H16         -3.3000    -2.0130    -3.1320 ha         1 N4A       0.156000
     57 H17         -1.3240    -3.5520    -2.9370 ha         1 N4A       0.152000
     58 H18          0.3910    -2.0990     0.0290 ha         1 N4A       0.128000
     59 H19          1.8720    -2.0690     1.9950 ha         1 N4A       0.130000
     60 H20          4.8520    -2.9800     3.9520 hn         1 N4A       0.375400
     61 H21          6.1450    -2.3830     1.0280 hn         1 N4A       0.455500
     62 H22          6.3920    -2.2910     2.7170 hn         1 N4A       0.455500
     63 H23          5.1430    -3.5100    -0.4670 ha         1 N4A       0.130000
     64 H24          3.6490    -3.5070    -2.4320 ha         1 N4A       0.128000
@<TRIPOS>BOND
     1     1     2 2   
     2     2     3 2   
     3     2     4 1   
     4     2    14 1   
     5     4     5 ar  
     6     4    13 ar  
     7     5     6 ar  
     8     5    41 1   
     9     6     7 ar  
    10     6    42 1   
    11     7     8 ar  
    12     7    12 ar  
    13     8     9 ar  
    14     8    43 1   
    15     9    10 ar  
    16     9    44 1   
    17    10    11 ar  
    18    10    45 1   
    19    11    12 ar  
    20    11    46 1   
    21    12    13 ar  
    22    13    47 1   
    23    14    15 1   
    24    14    48 1   
    25    15    16 ar  
    26    15    27 ar  
    27    16    17 1   
    28    16    30 ar  
    29    17    18 1   
    30    18    19 ar  
    31    18    26 ar  
    32    19    20 ar  
    33    19    49 1   
    34    20    21 ar  
    35    20    50 1   
    36    21    22 1   
    37    21    25 ar  
    38    22    23 1   
    39    22    24 2   
    40    23    51 1   
    41    23    52 1   
    42    24    53 1   
    43    25    26 ar  
    44    25    54 1   
    45    26    55 1   
    46    27    28 ar  
    47    27    56 1   
    48    28    29 ar  
    49    28    57 1   
    50    29    30 ar  
    51    29    31 1   
    52    31    32 1   
    53    32    33 ar  
    54    32    40 ar  
    55    33    34 ar  
    56    33    58 1   
    57    34    35 ar  
    58    34    59 1   
    59    35    36 1   
    60    35    39 ar  
    61    36    37 2   
    62    36    38 1   
    63    37    60 1   
    64    38    61 1   
    65    38    62 1   
    66    39    40 ar  
    67    39    63 1   
    68    40    64 1   
@<TRIPOS>SUBSTRUCTURE
     1 N4A         1 TEMP              0 ****  ****    0 ROOT
