@<TRIPOS>MOLECULE
N4B
   24    24     1     0     0
SMALL
No Charge or Current Charge


@<TRIPOS>ATOM
      1 C1           0.0020     0.4450    -0.5930 ca         1 N4B      -0.076300
      2 C2          -1.2140     0.1970    -1.2590 ca         1 N4B      -0.108000
      3 C3          -1.2140    -0.2840    -2.5800 ca         1 N4B      -0.110000
      4 C4           0.0030    -0.5200    -3.2430 ca         1 N4B      -0.113000
      5 C5           1.2190    -0.2760    -2.5820 ca         1 N4B      -0.110000
      6 C6           1.2180     0.2040    -1.2610 ca         1 N4B      -0.108000
      7 C7           0.0010     0.9600     0.8400 c3         1 N4B      -0.032100
      8 C8           0.0050    -0.1890     1.8710 c3         1 N4B      -0.074400
      9 C9           0.0050     0.3070     3.3340 c3         1 N4B      -0.076400
     10 C10          0.0090    -0.8430     4.3600 c3         1 N4B      -0.088100
     11 H2          -2.1600     0.3750    -0.7520 ha         1 N4B       0.110000
     12 H3          -2.1560    -0.4730    -3.0900 ha         1 N4B       0.111000
     13 H4           0.0030    -0.8920    -4.2650 ha         1 N4B       0.111000
     14 H5           2.1610    -0.4600    -3.0930 ha         1 N4B       0.111000
     15 H6           2.1640     0.3870    -0.7560 ha         1 N4B       0.110000
     16 H1'1        -0.8770     1.5950     1.0110 hc         1 N4B       0.044700
     17 H1'2         0.8770     1.6000     1.0100 hc         1 N4B       0.044700
     18 H2'1         0.8880    -0.8180     1.7020 hc         1 N4B       0.042200
     19 H2'2        -0.8750    -0.8220     1.7030 hc         1 N4B       0.042200
     20 H3'1        -0.8790     0.9340     3.5050 hc         1 N4B       0.036200
     21 H3'2         0.8850     0.9390     3.5040 hc         1 N4B       0.036200
     22 H4'1         0.0080    -0.4430     5.3810 hc         1 N4B       0.032033
     23 H4'2        -0.8790    -1.4750     4.2380 hc         1 N4B       0.032033
     24 H4'3         0.9000    -1.4700     4.2370 hc         1 N4B       0.032033
@<TRIPOS>BOND
     1     1     2 ar  
     2     1     6 ar  
     3     1     7 1   
     4     2     3 ar  
     5     2    11 1   
     6     3     4 ar  
     7     3    12 1   
     8     4     5 ar  
     9     4    13 1   
    10     5     6 ar  
    11     5    14 1   
    12     6    15 1   
    13     7     8 1   
    14     7    16 1   
    15     7    17 1   
    16     8     9 1   
    17     8    18 1   
    18     8    19 1   
    19     9    10 1   
    20     9    20 1   
    21     9    21 1   
    22    10    22 1   
    23    10    23 1   
    24    10    24 1   
@<TRIPOS>SUBSTRUCTURE
     1 N4B         1 TEMP              0 ****  ****    0 ROOT
