@<TRIPOS>MOLECULE
N4B
   24    24     1     0     0
SMALL
bcc


@<TRIPOS>ATOM
      1 C1           0.0050     0.4570    -0.5770 ca         1 N4B      -0.076300
      2 C2          -1.1920     0.1980    -1.2420 ca         1 N4B      -0.126000
      3 C3          -1.1970    -0.2870    -2.5430 ca         1 N4B      -0.128000
      4 C4           0.0020    -0.5250    -3.2030 ca         1 N4B      -0.131000
      5 C5           1.2020    -0.2730    -2.5510 ca         1 N4B      -0.128000
      6 C6           1.2000     0.2130    -1.2500 ca         1 N4B      -0.126000
      7 C7           0.0070     0.9470     0.8440 c3         1 N4B      -0.032100
      8 C8           0.0010    -0.1960     1.8600 c3         1 N4B      -0.074400
      9 C9           0.0010     0.3020     3.3000 c3         1 N4B      -0.076400
     10 C10          0.0070    -0.8290     4.3170 c3         1 N4B      -0.088100
     11 H2          -2.1340     0.3870    -0.7380 ha         1 N4B       0.128000
     12 H3          -2.1380    -0.4760    -3.0430 ha         1 N4B       0.129000
     13 H4           0.0010    -0.9000    -4.2190 ha         1 N4B       0.129000
     14 H5           2.1430    -0.4510    -3.0580 ha         1 N4B       0.129000
     15 H6           2.1430     0.4120    -0.7530 ha         1 N4B       0.128000
     16 H1'1        -0.8650     1.5840     1.0150 hc         1 N4B       0.044700
     17 H1'2         0.8860     1.5750     1.0150 hc         1 N4B       0.044700
     18 H2'1         0.8740    -0.8360     1.6930 hc         1 N4B       0.042200
     19 H2'2        -0.8770    -0.8290     1.6920 hc         1 N4B       0.042200
     20 H3'1        -0.8750     0.9370     3.4600 hc         1 N4B       0.036200
     21 H3'2         0.8730     0.9450     3.4580 hc         1 N4B       0.036200
     22 H4'1         0.0080    -0.4480     5.3390 hc         1 N4B       0.032033
     23 H4'2        -0.8710    -1.4680     4.2050 hc         1 N4B       0.032033
     24 H4'3         0.8900    -1.4610     4.2010 hc         1 N4B       0.032033
@<TRIPOS>BOND
     1     1     2 ar  
     2     1     6 ar  
     3     1     7 1   
     4     2     3 ar  
     5     2    11 1   
     6     3     4 ar  
     7     3    12 1   
     8     4     5 ar  
     9     4    13 1   
    10     5     6 ar  
    11     5    14 1   
    12     6    15 1   
    13     7     8 1   
    14     7    16 1   
    15     7    17 1   
    16     8     9 1   
    17     8    18 1   
    18     8    19 1   
    19     9    10 1   
    20     9    20 1   
    21     9    21 1   
    22    10    22 1   
    23    10    23 1   
    24    10    24 1   
@<TRIPOS>SUBSTRUCTURE
     1 N4B         1 TEMP              0 ****  ****    0 ROOT
