@<TRIPOS>MOLECULE
N4C
   65    68     1     0     0
SMALL
No Charge or Current Charge


@<TRIPOS>ATOM
      1 O3           4.1080     2.5220    -0.0800 o          1 N4C      -0.587100
      2 C8           3.7310     1.3590    -0.0270 c          1 N4C       0.610700
      3 N2           4.6100     0.3120    -0.2100 ns         1 N4C      -0.495900
      4 C9           6.0520     0.4410    -0.4570 c6         1 N4C       0.106700
      5 C14          6.5820    -0.8260    -1.1760 c6         1 N4C      -0.088900
      6 C13          8.1110    -0.7400    -1.4210 c6         1 N4C      -0.073400
      7 C12          8.8770    -0.5180    -0.0920 c6         1 N4C       0.161500
      8 N3          10.3240    -0.3990    -0.3410 n8         1 N4C      -0.996200
      9 C11          8.3460     0.7370     0.6480 c6         1 N4C      -0.073400
     10 C10          6.8160     0.6440     0.8790 c6         1 N4C      -0.088900
     11 C5           2.2810     0.9930     0.2380 ca         1 N4C      -0.060600
     12 C1           1.3140     2.0000     0.4360 ca         1 N4C      -0.184000
     13 C4           1.8140    -0.3400     0.3030 ca         1 N4C      -0.184000
     14 C3           0.4580    -0.5950     0.5520 ca         1 N4C       0.619800
     15 O2           0.0540    -1.9070     0.6190 os         1 N4C      -0.366400
     16 C6          -1.2220    -2.3170     0.2990 ca         1 N4C       0.132100
     17 C24         -1.8700    -1.8520    -0.8590 ca         1 N4C      -0.120500
     18 C23         -3.1660    -2.2980    -1.1710 ca         1 N4C      -0.070500
     19 C22         -3.8260    -3.2370    -0.3420 ca         1 N4C      -0.177400
     20 C26         -5.2210    -3.6820    -0.6510 ce         1 N4C       0.673300
     21 N7          -5.5940    -3.7490    -1.9390 nv         1 N4C      -1.060200
     22 N6          -6.0210    -4.1440     0.2160 n2         1 N4C      -0.863600
     23 C21         -3.1620    -3.6940     0.8220 ca         1 N4C      -0.070500
     24 C20         -1.8650    -3.2450     1.1300 ca         1 N4C      -0.120500
     25 N1          -0.4440     0.3830     0.7570 nb         1 N4C      -0.804000
     26 C2          -0.0220     1.6580     0.6800 ca         1 N4C       0.619800
     27 O1          -0.9210     2.6790     0.8810 os         1 N4C      -0.366400
     28 C7          -2.2640     2.5660     0.5980 ca         1 N4C       0.132100
     29 C19         -3.1960     3.0870     1.5060 ca         1 N4C      -0.120500
     30 C18         -4.5730     3.0080     1.2330 ca         1 N4C      -0.070500
     31 C17         -5.0420     2.3970     0.0460 ca         1 N4C      -0.177400
     32 C25         -6.5110     2.3500    -0.2490 ce         1 N4C       0.673300
     33 N5          -7.3640     3.0880     0.3300 n2         1 N4C      -0.863600
     34 N4          -6.9570     1.3940    -1.0860 nv         1 N4C      -1.060200
     35 C16         -4.0890     1.9090    -0.8820 ca         1 N4C      -0.070500
     36 C15         -2.7120     1.9940    -0.6070 ca         1 N4C      -0.120500
     37 H1           4.2220    -0.6190    -0.1540 hn         1 N4C       0.315500
     38 H2           6.2220     1.3150    -1.1050 h1         1 N4C       0.084700
     39 H3           6.3560    -1.7200    -0.5790 hc         1 N4C       0.046200
     40 H4           6.0640    -0.9520    -2.1370 hc         1 N4C       0.046200
     41 H5           8.4570    -1.6640    -1.9050 hc         1 N4C       0.051950
     42 H6           8.3250     0.0800    -2.1200 hc         1 N4C       0.051950
     43 H7           8.7330    -1.3970     0.5530 h1         1 N4C       0.011700
     44 H8          10.8090    -0.3490     0.5620 hn         1 N4C       0.394000
     45 H9          10.6610    -1.2820    -0.7430 hn         1 N4C       0.394000
     46 H11          8.8570     0.8490     1.6140 hc         1 N4C       0.051950
     47 H12          8.5740     1.6410     0.0660 hc         1 N4C       0.051950
     48 H13          6.4660     1.5590     1.3750 hc         1 N4C       0.046200
     49 H14          6.5970    -0.1860     1.5650 hc         1 N4C       0.046200
     50 H15          1.5860     3.0510     0.4020 ha         1 N4C       0.154500
     51 H16          2.4740    -1.1900     0.1640 ha         1 N4C       0.154500
     52 H17         -1.3750    -1.1400    -1.5150 ha         1 N4C       0.131250
     53 H18         -3.6570    -1.9020    -2.0580 ha         1 N4C       0.128500
     54 H19         -4.8330    -3.8500    -2.5990 hn         1 N4C       0.475500
     55 H20         -6.3960    -4.3470    -2.0990 hn         1 N4C       0.475500
     56 H21         -5.6130    -3.9710     1.1430 hn         1 N4C       0.381400
     57 H22         -3.6370    -4.4140     1.4850 ha         1 N4C       0.128500
     58 H23         -1.3600    -3.6120     2.0200 ha         1 N4C       0.131250
     59 H24         -2.8500     3.5530     2.4260 ha         1 N4C       0.131250
     60 H25         -5.2770     3.4170     1.9550 ha         1 N4C       0.128500
     61 H26         -8.2400     3.0300    -0.2010 hn         1 N4C       0.381400
     62 H27         -6.2960     0.6470    -1.2600 hn         1 N4C       0.475500
     63 H28         -7.9110     1.0870    -0.9380 hn         1 N4C       0.475500
     64 H29         -4.4050     1.4770    -1.8290 ha         1 N4C       0.128500
     65 H30         -1.9960     1.6190    -1.3340 ha         1 N4C       0.131250
@<TRIPOS>BOND
     1     1     2 2   
     2     2     3 1   
     3     2    11 1   
     4     3     4 1   
     5     3    37 1   
     6     4     5 1   
     7     4    10 1   
     8     4    38 1   
     9     5     6 1   
    10     5    39 1   
    11     5    40 1   
    12     6     7 1   
    13     6    41 1   
    14     6    42 1   
    15     7     8 1   
    16     7     9 1   
    17     7    43 1   
    18     8    44 1   
    19     8    45 1   
    20     9    10 1   
    21     9    46 1   
    22     9    47 1   
    23    10    48 1   
    24    10    49 1   
    25    11    12 ar  
    26    11    13 ar  
    27    12    26 ar  
    28    12    50 1   
    29    13    14 ar  
    30    13    51 1   
    31    14    15 1   
    32    14    25 ar  
    33    15    16 1   
    34    16    17 ar  
    35    16    24 ar  
    36    17    18 ar  
    37    17    52 1   
    38    18    19 ar  
    39    18    53 1   
    40    19    20 1   
    41    19    23 ar  
    42    20    21 1   
    43    20    22 2   
    44    21    54 1   
    45    21    55 1   
    46    22    56 1   
    47    23    24 ar  
    48    23    57 1   
    49    24    58 1   
    50    25    26 ar  
    51    26    27 1   
    52    27    28 1   
    53    28    29 ar  
    54    28    36 ar  
    55    29    30 ar  
    56    29    59 1   
    57    30    31 ar  
    58    30    60 1   
    59    31    32 1   
    60    31    35 ar  
    61    32    33 2   
    62    32    34 1   
    63    33    61 1   
    64    34    62 1   
    65    34    63 1   
    66    35    36 ar  
    67    35    64 1   
    68    36    65 1   
@<TRIPOS>SUBSTRUCTURE
     1 N4C         1 TEMP              0 ****  ****    0 ROOT
