@<TRIPOS>MOLECULE
N4C
   65    68     1     0     0
SMALL
bcc


@<TRIPOS>ATOM
      1 O3           4.0210     2.1960    -0.8870 o          1 N4C      -0.587100
      2 C8           3.7640     1.0630    -0.5060 c          1 N4C       0.677700
      3 N2           4.6880     0.1430    -0.2080 ns         1 N4C      -0.562900
      4 C9           6.1170     0.3720    -0.3130 c6         1 N4C       0.106700
      5 C14          6.8160    -0.9060    -0.7680 c6         1 N4C      -0.088900
      6 C13          8.3180    -0.6840    -0.8890 c6         1 N4C      -0.073400
      7 C12          8.9210    -0.1870     0.4210 c6         1 N4C       0.161500
      8 N3          10.3430     0.0690     0.2430 n8         1 N4C      -0.885800
      9 C11          8.2150     1.0910     0.8650 c6         1 N4C      -0.073400
     10 C10          6.7110     0.8790     1.0000 c6         1 N4C      -0.088900
     11 C5           2.3340     0.6210    -0.3540 ca         1 N4C      -0.060600
     12 C1           1.3830     1.5890    -0.0660 ca         1 N4C      -0.267300
     13 C4           1.9500    -0.7000    -0.5480 ca         1 N4C      -0.267300
     14 C3           0.5960    -0.9800    -0.4200 ca         1 N4C       0.685100
     15 O2           0.1830    -2.2480    -0.6320 os         1 N4C      -0.366400
     16 C6          -1.1830    -2.4340    -0.6730 ca         1 N4C       0.132100
     17 C24         -1.8590    -2.2250    -1.8620 ca         1 N4C      -0.138500
     18 C23         -3.2410    -2.3200    -1.8790 ca         1 N4C      -0.088500
     19 C22         -3.9420    -2.6100    -0.7120 ca         1 N4C      -0.177400
     20 C26         -5.4250    -2.5160    -0.6740 ce         1 N4C       0.673300
     21 N7          -6.0710    -2.9150    -1.7920 nv         1 N4C      -0.949800
     22 N6          -6.0710    -2.0140     0.3160 n2         1 N4C      -0.863600
     23 C21         -3.2350    -2.8820     0.4560 ca         1 N4C      -0.088500
     24 C20         -1.8540    -2.8000     0.4800 ca         1 N4C      -0.138500
     25 N1          -0.3120    -0.0820    -0.1100 nb         1 N4C      -0.804000
     26 C2           0.0660     1.1640     0.0530 ca         1 N4C       0.685100
     27 O1          -0.8480     2.0980     0.3760 os         1 N4C      -0.366400
     28 C7          -2.2020     1.8840     0.4070 ca         1 N4C       0.132100
     29 C19         -2.8830     2.5550     1.4170 ca         1 N4C      -0.138500
     30 C18         -4.2640     2.5190     1.4610 ca         1 N4C      -0.088500
     31 C17         -4.9930     1.7970     0.5170 ca         1 N4C      -0.177400
     32 C25         -6.4820     1.8510     0.5480 ce         1 N4C       0.673300
     33 N5          -7.0310     2.8780     1.0770 n2         1 N4C      -0.863600
     34 N4          -7.1330     0.8190    -0.0630 nv         1 N4C      -0.949800
     35 C16         -4.2920     1.1040    -0.4670 ca         1 N4C      -0.088500
     36 C15         -2.9060     1.1460    -0.5360 ca         1 N4C      -0.138500
     37 H1           4.3950    -0.7180     0.2270 hn         1 N4C       0.315500
     38 H2           6.2660     1.1370    -1.0790 h1         1 N4C       0.084700
     39 H3           6.6190    -1.7050    -0.0430 hc         1 N4C       0.046200
     40 H4           6.4010    -1.2340    -1.7240 hc         1 N4C       0.046200
     41 H5           8.8070    -1.6130    -1.1960 hc         1 N4C       0.051950
     42 H6           8.5210     0.0550    -1.6720 hc         1 N4C       0.051950
     43 H7           8.7230    -0.9560     1.1870 h1         1 N4C       0.011700
     44 H8          10.7500     0.3500     1.1270 hn         1 N4C       0.338800
     45 H9          10.8120    -0.7940    -0.0070 hn         1 N4C       0.338800
     46 H11          8.6290     1.4380     1.8150 hc         1 N4C       0.051950
     47 H12          8.4140     1.8770     0.1270 hc         1 N4C       0.051950
     48 H13          6.2200     1.8100     1.2920 hc         1 N4C       0.046200
     49 H14          6.5080     0.1480     1.7910 hc         1 N4C       0.046200
     50 H15          1.6510     2.6280     0.0700 ha         1 N4C       0.172500
     51 H16          2.6450    -1.4810    -0.8250 ha         1 N4C       0.172500
     52 H17         -1.3180    -1.9520    -2.7590 ha         1 N4C       0.149250
     53 H18         -3.7700    -2.1120    -2.8000 ha         1 N4C       0.146500
     54 H19         -5.6400    -3.5880    -2.4030 hn         1 N4C       0.420300
     55 H20         -7.0780    -2.9310    -1.7720 hn         1 N4C       0.420300
     56 H21         -5.4290    -1.6900     1.0310 hn         1 N4C       0.381400
     57 H22         -3.7620    -3.1480     1.3630 ha         1 N4C       0.146500
     58 H23         -1.3090    -2.9870     1.3950 ha         1 N4C       0.149250
     59 H24         -2.3270     3.1190     2.1550 ha         1 N4C       0.149250
     60 H25         -4.7870     3.0590     2.2380 ha         1 N4C       0.146500
     61 H26         -8.0440     2.7960     1.0640 hn         1 N4C       0.381400
     62 H27         -6.7380    -0.1180    -0.0190 hn         1 N4C       0.420300
     63 H28         -8.1380     0.8170     0.0300 hn         1 N4C       0.420300
     64 H29         -4.8230     0.5470    -1.2280 ha         1 N4C       0.146500
     65 H30         -2.4010     0.6190    -1.3300 ha         1 N4C       0.149250
@<TRIPOS>BOND
     1     1     2 2   
     2     2     3 1   
     3     2    11 1   
     4     3     4 1   
     5     3    37 1   
     6     4     5 1   
     7     4    10 1   
     8     4    38 1   
     9     5     6 1   
    10     5    39 1   
    11     5    40 1   
    12     6     7 1   
    13     6    41 1   
    14     6    42 1   
    15     7     8 1   
    16     7     9 1   
    17     7    43 1   
    18     8    44 1   
    19     8    45 1   
    20     9    10 1   
    21     9    46 1   
    22     9    47 1   
    23    10    48 1   
    24    10    49 1   
    25    11    12 ar  
    26    11    13 ar  
    27    12    26 ar  
    28    12    50 1   
    29    13    14 ar  
    30    13    51 1   
    31    14    15 1   
    32    14    25 ar  
    33    15    16 1   
    34    16    17 ar  
    35    16    24 ar  
    36    17    18 ar  
    37    17    52 1   
    38    18    19 ar  
    39    18    53 1   
    40    19    20 1   
    41    19    23 ar  
    42    20    21 1   
    43    20    22 2   
    44    21    54 1   
    45    21    55 1   
    46    22    56 1   
    47    23    24 ar  
    48    23    57 1   
    49    24    58 1   
    50    25    26 ar  
    51    26    27 1   
    52    27    28 1   
    53    28    29 ar  
    54    28    36 ar  
    55    29    30 ar  
    56    29    59 1   
    57    30    31 ar  
    58    30    60 1   
    59    31    32 1   
    60    31    35 ar  
    61    32    33 2   
    62    32    34 1   
    63    33    61 1   
    64    34    62 1   
    65    34    63 1   
    66    35    36 ar  
    67    35    64 1   
    68    36    65 1   
@<TRIPOS>SUBSTRUCTURE
     1 N4C         1 TEMP              0 ****  ****    0 ROOT
