@<TRIPOS>MOLECULE
N4D
   45    48     1     0     0
SMALL
bcc


@<TRIPOS>ATOM
      1 C13         -3.2290     2.2340     0.3380 ca         1 N4D      -0.084300
      2 C18         -4.9720    -1.5550    -0.7240 c          1 N4D       0.677700
      3 C17         -0.0750     0.5600    -0.0110 ca         1 N4D       0.785200
      4 C16          2.2240    -0.0300     0.1450 ca         1 N4D       0.496800
      5 C15         -2.4540     1.1820    -0.1670 ca         1 N4D       0.141600
      6 C19         -2.6040     3.5400     0.7250 c3         1 N4D      -0.052800
      7 C20         -6.7450    -3.1880    -0.3630 c3         1 N4D       0.095300
      8 C11          1.2700     0.9010    -0.2660 ca         1 N4D      -0.523500
      9 C12         -4.4050    -0.2270    -0.3360 ca         1 N4D      -0.138600
     10 C1           7.2500    -1.1650     0.2770 ca         1 N4D      -0.129000
     11 C2           6.9560    -0.3770    -0.8280 ca         1 N4D      -0.121000
     12 C3           6.2700    -1.4010     1.2300 ca         1 N4D      -0.121000
     13 C4          -5.1860     0.8160     0.1560 ca         1 N4D      -0.114000
     14 C5          -4.5980     2.0290     0.4740 ca         1 N4D      -0.123000
     15 C6           5.6890     0.1630    -0.9890 ca         1 N4D      -0.118000
     16 C7           5.0020    -0.8560     1.0890 ca         1 N4D      -0.118000
     17 C8          -3.0420    -0.0250    -0.5190 ca         1 N4D      -0.062000
     18 C9           2.0180     1.9480    -0.8530 cc         1 N4D       0.387800
     19 C10          0.6740    -1.4000     0.9040 ca         1 N4D       0.721900
     20 C14          4.7140    -0.0780    -0.0270 ca         1 N4D       0.023800
     21 N21          3.2950     1.6820    -0.8010 nd         1 N4D      -0.512100
     22 N22          1.9640    -1.2010     0.7300 nb         1 N4D      -0.743000
     23 N23         -0.3410    -0.5990     0.5780 nb         1 N4D      -0.810000
     24 N24          3.4320     0.4860    -0.1920 na         1 N4D       0.075100
     25 N25         -1.0760     1.3960    -0.3480 nu         1 N4D      -0.744300
     26 N26         -6.0920    -1.9290    -0.0910 ns         1 N4D      -0.571900
     27 O27         -4.4290    -2.2570    -1.5680 o          1 N4D      -0.598100
     28 H19         -2.1830     4.0650    -0.1360 hc         1 N4D       0.046033
     29 H19A        -3.3420     4.2010     1.1760 hc         1 N4D       0.046033
     30 H19B        -1.7960     3.3980     1.4440 hc         1 N4D       0.046033
     31 H20         -7.0750    -3.2500    -1.4010 h1         1 N4D       0.040700
     32 H20A        -6.0910    -4.0360    -0.1610 h1         1 N4D       0.040700
     33 H20B        -7.6180    -3.2660     0.2780 h1         1 N4D       0.040700
     34 H2           7.7130    -0.1850    -1.5760 ha         1 N4D       0.135000
     35 H3           6.4910    -2.0060     2.1000 ha         1 N4D       0.135000
     36 H4          -6.2570     0.7090     0.2730 ha         1 N4D       0.132000
     37 H5          -5.2150     2.8370     0.8470 ha         1 N4D       0.134000
     38 H6           5.4610     0.7690    -1.8550 ha         1 N4D       0.154500
     39 H7           4.2520    -1.0320     1.8460 ha         1 N4D       0.154500
     40 H8          -2.4390    -0.8170    -0.9380 ha         1 N4D       0.174000
     41 H9           1.6750     2.8700    -1.2970 h4         1 N4D       0.048800
     42 H10          0.3940    -2.3340     1.3760 h5         1 N4D       0.051100
     43 HN25        -0.8050     2.2980    -0.7090 hn         1 N4D       0.449800
     44 HN26        -6.4400    -1.3760     0.6740 hn         1 N4D       0.316500
     45 H1           8.2380    -1.5900     0.3950 ha         1 N4D       0.134000
@<TRIPOS>BOND
     1     1     5 ar  
     2     1     6 1   
     3     1    14 ar  
     4     2     9 1   
     5     2    26 1   
     6     2    27 2   
     7     3     8 ar  
     8     3    23 ar  
     9     3    25 1   
    10     4     8 ar  
    11     4    22 ar  
    12     4    24 1   
    13     5    17 ar  
    14     5    25 1   
    15     6    28 1   
    16     6    29 1   
    17     6    30 1   
    18     7    26 1   
    19     7    31 1   
    20     7    32 1   
    21     7    33 1   
    22     8    18 1   
    23     9    13 ar  
    24     9    17 ar  
    25    10    11 ar  
    26    10    12 ar  
    27    10    45 1   
    28    11    15 ar  
    29    11    34 1   
    30    12    16 ar  
    31    12    35 1   
    32    13    14 ar  
    33    13    36 1   
    34    14    37 1   
    35    15    20 ar  
    36    15    38 1   
    37    16    20 ar  
    38    16    39 1   
    39    17    40 1   
    40    18    21 2   
    41    18    41 1   
    42    19    22 ar  
    43    19    23 ar  
    44    19    42 1   
    45    20    24 1   
    46    21    24 1   
    47    25    43 1   
    48    26    44 1   
@<TRIPOS>SUBSTRUCTURE
     1 N4D         1 TEMP              0 ****  ****    0 ROOT
