@<TRIPOS>MOLECULE
N4D
   45    48     1     0     0
SMALL
No Charge or Current Charge


@<TRIPOS>ATOM
      1 C13         -3.2240     2.1630     0.4280 ca         1 N4D      -0.084300
      2 C18         -5.0380    -1.6810    -0.5330 c          1 N4D       0.610700
      3 C17          0.0460     0.3240     0.2920 ca         1 N4D       0.456900
      4 C16          2.3880    -0.1410     0.2410 ca         1 N4D       0.168500
      5 C15         -2.4140     1.0450     0.1150 ca         1 N4D       0.280000
      6 C19         -2.6140     3.5240     0.7620 c3         1 N4D      -0.052800
      7 C20         -7.1680    -2.9890    -0.8090 c3         1 N4D       0.095300
      8 C11          1.3490     0.7100     0.0050 ca         1 N4D      -0.392900
      9 C12         -4.4350    -0.3350    -0.1870 ca         1 N4D      -0.138600
     10 C1           7.4210    -0.9990     0.0220 ca         1 N4D      -0.111000
     11 C2           6.8840    -0.5960    -1.2130 ca         1 N4D      -0.103000
     12 C3           6.6530    -0.8800     1.1930 ca         1 N4D      -0.103000
     13 C4          -5.2270     0.7890     0.1440 ca         1 N4D      -0.096000
     14 C5          -4.6240     2.0210     0.4430 ca         1 N4D      -0.105000
     15 C6           5.5800    -0.0750    -1.2770 ca         1 N4D      -0.100000
     16 C7           5.3490    -0.3590     1.1300 ca         1 N4D      -0.100000
     17 C8          -3.0290    -0.1840    -0.2010 ca         1 N4D      -0.044000
     18 C9           1.9050     1.9090    -0.5580 cc         1 N4D       0.387800
     19 C10          0.9010    -1.6800     1.0300 ca         1 N4D       0.195900
     20 C14          4.8040     0.0440    -0.1070 ca         1 N4D       0.023800
     21 N21          3.2370     1.8300    -0.6760 nd         1 N4D      -0.512100
     22 N22          2.1920    -1.3680     0.7600 nb         1 N4D      -0.217000
     23 N23         -0.1840    -0.8910     0.8250 nb         1 N4D      -0.284000
     24 N24          3.5090     0.5590    -0.1730 na         1 N4D       0.075100
     25 N25         -1.0160     1.1890     0.0850 nu         1 N4D      -0.937900
     26 N26         -6.4130    -1.7710    -0.5050 ns         1 N4D      -0.504900
     27 O27         -4.3490    -2.6490    -0.8240 o          1 N4D      -0.598100
     28 H19         -2.0820     3.9420    -0.1010 hc         1 N4D       0.046033
     29 H19A        -3.3790     4.2530     1.0560 hc         1 N4D       0.046033
     30 H19B        -1.9050     3.4470     1.5950 hc         1 N4D       0.046033
     31 H20         -6.9520    -3.3120    -1.8360 h1         1 N4D       0.040700
     32 H20A        -6.8840    -3.7850    -0.1080 h1         1 N4D       0.040700
     33 H20B        -8.2430    -2.7880    -0.7120 h1         1 N4D       0.040700
     34 H2           7.4780    -0.6870    -2.1200 ha         1 N4D       0.117000
     35 H3           7.0690    -1.1900     2.1490 ha         1 N4D       0.117000
     36 H4          -6.3120     0.7290     0.1690 ha         1 N4D       0.114000
     37 H5          -5.2560     2.8720     0.6890 ha         1 N4D       0.116000
     38 H6           5.1680     0.2350    -2.2350 ha         1 N4D       0.136500
     39 H7           4.7610    -0.2670     2.0400 ha         1 N4D       0.136500
     40 H8          -2.4090    -1.0290    -0.4790 ha         1 N4D       0.156000
     41 H9           1.4310     2.8230    -0.8910 h4         1 N4D       0.048800
     42 H10          0.7150    -2.6640     1.4550 h5         1 N4D       0.051100
     43 HN25        -0.7150     2.1560    -0.0030 hn         1 N4D       0.505000
     44 HN26        -6.9240    -0.9340    -0.2560 hn         1 N4D       0.316500
     45 H1           8.4300    -1.4020     0.0710 ha         1 N4D       0.116000
@<TRIPOS>BOND
     1     1     5 ar  
     2     1     6 1   
     3     1    14 ar  
     4     2     9 1   
     5     2    26 1   
     6     2    27 2   
     7     3     8 ar  
     8     3    23 ar  
     9     3    25 1   
    10     4     8 ar  
    11     4    22 ar  
    12     4    24 1   
    13     5    17 ar  
    14     5    25 1   
    15     6    28 1   
    16     6    29 1   
    17     6    30 1   
    18     7    26 1   
    19     7    31 1   
    20     7    32 1   
    21     7    33 1   
    22     8    18 1   
    23     9    13 ar  
    24     9    17 ar  
    25    10    11 ar  
    26    10    12 ar  
    27    10    45 1   
    28    11    15 ar  
    29    11    34 1   
    30    12    16 ar  
    31    12    35 1   
    32    13    14 ar  
    33    13    36 1   
    34    14    37 1   
    35    15    20 ar  
    36    15    38 1   
    37    16    20 ar  
    38    16    39 1   
    39    17    40 1   
    40    18    21 2   
    41    18    41 1   
    42    19    22 ar  
    43    19    23 ar  
    44    19    42 1   
    45    20    24 1   
    46    21    24 1   
    47    25    43 1   
    48    26    44 1   
@<TRIPOS>SUBSTRUCTURE
     1 N4D         1 TEMP              0 ****  ****    0 ROOT
