@<TRIPOS>MOLECULE
N4E
   26    26     1     0     0
SMALL
No Charge or Current Charge


@<TRIPOS>ATOM
      1 O            3.6190    -1.5050     0.1760 o          1 N4E      -0.589100
      2 C            3.6370    -0.2820     0.0970 c          1 N4E       0.607100
      3 CM           4.9540     0.4910     0.0680 c3         1 N4E      -0.181100
      4 N            2.5080     0.5250     0.0260 ns         1 N4E      -0.143000
      5 C1           1.1140     0.2320     0.0210 ca         1 N4E      -0.059000
      6 C6           0.5900    -1.0780     0.0980 ca         1 N4E      -0.111500
      7 C5          -0.8000    -1.2870     0.0880 ca         1 N4E      -0.147500
      8 C4          -1.6870    -0.2020     0.0030 ca         1 N4E       0.122100
      9 C3          -1.1700     1.1080    -0.0740 ca         1 N4E      -0.147500
     10 C2           0.2210     1.3170    -0.0640 ca         1 N4E      -0.111500
     11 O4          -3.0400    -0.4720    -0.0020 os         1 N4E      -0.348100
     12 C12         -4.0280     0.5690    -0.0860 c3         1 N4E       0.165600
     13 C13         -5.4120    -0.1000    -0.0650 c3         1 N4E      -0.094100
     14 HM           5.8300    -0.1640     0.1260 hc         1 N4E       0.062367
     15 HMA          4.9770     1.1220    -0.8270 hc         1 N4E       0.062367
     16 HMB          4.9490     1.2330     0.8750 hc         1 N4E       0.062367
     17 HN           2.7150     1.5130    -0.0350 hn         1 N4E       0.147000
     18 H6           1.2390    -1.9460     0.1650 ha         1 N4E       0.127500
     19 H5          -1.1950    -2.2980     0.1470 ha         1 N4E       0.122000
     20 H3          -1.8260     1.9710    -0.1410 ha         1 N4E       0.122000
     21 H2           0.6060     2.3340    -0.1240 ha         1 N4E       0.127500
     22 H12         -3.9430     1.2570     0.7650 h1         1 N4E       0.031700
     23 H12A        -3.9130     1.1410    -1.0160 h1         1 N4E       0.031700
     24 H13         -6.2000     0.6580    -0.1280 hc         1 N4E       0.047033
     25 H13A        -5.5230    -0.7830    -0.9160 hc         1 N4E       0.047033
     26 H13B        -5.5520    -0.6680     0.8620 hc         1 N4E       0.047033
@<TRIPOS>BOND
     1     1     2 2   
     2     2     3 1   
     3     2     4 1   
     4     3    14 1   
     5     3    15 1   
     6     3    16 1   
     7     4     5 1   
     8     4    17 1   
     9     5     6 ar  
    10     5    10 ar  
    11     6     7 ar  
    12     6    18 1   
    13     7     8 ar  
    14     7    19 1   
    15     8     9 ar  
    16     8    11 1   
    17     9    10 ar  
    18     9    20 1   
    19    10    21 1   
    20    11    12 1   
    21    12    13 1   
    22    12    22 1   
    23    12    23 1   
    24    13    24 1   
    25    13    25 1   
    26    13    26 1   
@<TRIPOS>SUBSTRUCTURE
     1 N4E         1 TEMP              0 ****  ****    0 ROOT
