@<TRIPOS>MOLECULE
N4E
   26    26     1     0     0
SMALL
bcc


@<TRIPOS>ATOM
      1 O            3.4750    -1.4380     0.2380 o          1 N4E      -0.589100
      2 C            3.5370    -0.2240     0.1260 c          1 N4E       0.674100
      3 CM           4.8600     0.5010     0.1130 c3         1 N4E      -0.181100
      4 N            2.4550     0.5820     0.0140 ns         1 N4E      -0.469100
      5 C1           1.0920     0.2500     0.0070 ca         1 N4E       0.033600
      6 C6           0.5840    -1.0400     0.1790 ca         1 N4E      -0.129500
      7 C5          -0.7830    -1.2560     0.1670 ca         1 N4E      -0.165500
      8 C4          -1.6840    -0.2080    -0.0150 ca         1 N4E       0.122100
      9 C3          -1.1810     1.0780    -0.1920 ca         1 N4E      -0.165500
     10 C2           0.1890     1.2930    -0.1800 ca         1 N4E      -0.129500
     11 O4          -2.9940    -0.5240    -0.0040 os         1 N4E      -0.324900
     12 C12         -3.9500     0.5180    -0.1430 c3         1 N4E       0.142400
     13 C13         -5.3280    -0.0890    -0.0290 c3         1 N4E      -0.094100
     14 HM           5.5010     0.0690    -0.6540 hc         1 N4E       0.062367
     15 HMA          4.7790     1.5710    -0.0670 hc         1 N4E       0.062367
     16 HMB          5.3580     0.3520     1.0720 hc         1 N4E       0.062367
     17 HN           2.6430     1.5680    -0.0790 hn         1 N4E       0.313500
     18 H6           1.2430    -1.8800     0.3250 ha         1 N4E       0.145500
     19 H5          -1.1610    -2.2620     0.3050 ha         1 N4E       0.140000
     20 H3          -1.8310     1.9290    -0.3400 ha         1 N4E       0.140000
     21 H2           0.5560     2.3040    -0.3200 ha         1 N4E       0.145500
     22 H12         -3.8010     1.2750     0.6340 h1         1 N4E       0.031700
     23 H12A        -3.8330     1.0150    -1.1130 h1         1 N4E       0.031700
     24 H13         -6.0770     0.6940    -0.1430 hc         1 N4E       0.047033
     25 H13A        -5.5020    -0.8350    -0.8040 hc         1 N4E       0.047033
     26 H13B        -5.4770    -0.5570     0.9440 hc         1 N4E       0.047033
@<TRIPOS>BOND
     1     1     2 2   
     2     2     3 1   
     3     2     4 1   
     4     3    14 1   
     5     3    15 1   
     6     3    16 1   
     7     4     5 1   
     8     4    17 1   
     9     5     6 ar  
    10     5    10 ar  
    11     6     7 ar  
    12     6    18 1   
    13     7     8 ar  
    14     7    19 1   
    15     8     9 ar  
    16     8    11 1   
    17     9    10 ar  
    18     9    20 1   
    19    10    21 1   
    20    11    12 1   
    21    12    13 1   
    22    12    22 1   
    23    12    23 1   
    24    13    24 1   
    25    13    25 1   
    26    13    26 1   
@<TRIPOS>SUBSTRUCTURE
     1 N4E         1 TEMP              0 ****  ****    0 ROOT
