@<TRIPOS>MOLECULE
N4F
   25    26     1     0     0
SMALL
abcg2


@<TRIPOS>ATOM
      1 C1           5.4340     6.5900    42.6810 c3         1 N4F      -0.077100
      2 C2           6.7080     7.1900    43.2510 c3         1 N4F      -0.154400
      3 C3           7.5250     6.1940    44.0530 c          1 N4F       0.608100
      4 C6           9.4960     5.7550    45.4290 c6         1 N4F       0.094000
      5 C7          10.7590     5.4580    44.6250 c6         1 N4F      -0.128700
      6 C8          11.3210     6.7440    44.1120 cc         1 N4F       0.299300
      7 C10         12.8510     8.0760    43.2870 cd         1 N4F       0.425300
      8 C12         10.5880     7.8890    44.0940 cd         1 N4F      -0.277300
      9 C13          9.1650     7.9980    44.5540 c6         1 N4F       0.190300
     10 O4           7.1940     5.0210    44.1290 o          1 N4F      -0.594100
     11 N5           8.6250     6.6610    44.6980 n          1 N4F      -0.416800
     12 N9          12.6010     6.8610    43.6460 nc         1 N4F      -0.626000
     13 S11         11.5420     9.1770    43.4820 ss         1 N4F      -0.033400
     14 H14          4.8880     7.3520    42.1260 hc         1 N4F       0.042700
     15 H15          5.6410     5.7680    41.9990 hc         1 N4F       0.042700
     16 H1           4.7760     6.2200    43.4660 hc         1 N4F       0.042700
     17 H16          7.3250     7.5800    42.4360 hc         1 N4F       0.055700
     18 H24          6.4620     8.0530    43.8760 hc         1 N4F       0.055700
     19 H17          8.9590     4.8430    45.6680 h1         1 N4F       0.066200
     20 H20         10.5350     4.7790    43.7980 hc         1 N4F       0.072700
     21 H19         11.4900     4.9510    45.2590 hc         1 N4F       0.072700
     22 H21         13.8000     8.4110    42.8900 h5         1 N4F       0.054100
     23 H23          9.1170     8.5270    45.5120 h1         1 N4F       0.059700
     24 H22          8.5810     8.5810    43.8470 h1         1 N4F       0.059700
     25 H18          9.7680     6.2350    46.3730 h1         1 N4F       0.066200
@<TRIPOS>BOND
     1     1     2 1   
     2     1    14 1   
     3     1    15 1   
     4     1    16 1   
     5     2     3 1   
     6     2    17 1   
     7     2    18 1   
     8     3    10 2   
     9     3    11 1   
    10     4     5 1   
    11     4    11 1   
    12     4    19 1   
    13     4    25 1   
    14     5     6 1   
    15     5    20 1   
    16     5    21 1   
    17     6     8 2   
    18     6    12 1   
    19     7    12 2   
    20     7    13 1   
    21     7    22 1   
    22     8     9 1   
    23     8    13 1   
    24     9    11 1   
    25     9    23 1   
    26     9    24 1   
@<TRIPOS>SUBSTRUCTURE
     1 N4F         1 TEMP              0 ****  ****    0 ROOT
