@<TRIPOS>MOLECULE
N4F
   25    26     1     0     0
SMALL
No Charge or Current Charge


@<TRIPOS>ATOM
      1 C1           4.9450     6.7670    43.2010 c3         1 N4F      -0.077100
      2 C2           6.4410     7.1480    43.2760 c3         1 N4F      -0.154400
      3 C3           7.3210     6.2490    44.1740 c          1 N4F       0.608100
      4 C6           9.6060     5.5350    44.9600 c6         1 N4F       0.094000
      5 C7          11.0650     5.4390    44.4600 c6         1 N4F      -0.128700
      6 C8          11.6080     6.8140    44.2710 cc         1 N4F       0.299300
      7 C10         13.1270     8.4120    44.2380 cd         1 N4F       0.425300
      8 C12         10.7960     7.8370    43.8900 cd         1 N4F      -0.277300
      9 C13          9.3210     7.6900    43.6040 c6         1 N4F       0.190300
     10 O4           6.8200     5.3780    44.8750 o          1 N4F      -0.594100
     11 N5           8.7250     6.4220    44.1350 n          1 N4F      -0.416800
     12 N9          12.9270     7.1160    44.4740 nc         1 N4F      -0.626000
     13 S11         11.6980     9.3310    43.7520 ss         1 N4F      -0.033400
     14 H14          4.4080     7.4560    42.5380 hc         1 N4F       0.042700
     15 H15          4.8230     5.7500    42.8080 hc         1 N4F       0.042700
     16 H1           4.4800     6.8150    44.1930 hc         1 N4F       0.042700
     17 H16          6.8940     7.1880    42.2790 hc         1 N4F       0.055700
     18 H24          6.5620     8.1850    43.6110 hc         1 N4F       0.055700
     19 H17          9.1860     4.5190    44.9920 h1         1 N4F       0.066200
     20 H20         11.0930     4.8900    43.5100 hc         1 N4F       0.072700
     21 H19         11.6670     4.8660    45.1760 hc         1 N4F       0.072700
     22 H21         14.0820     8.9150    44.3240 h5         1 N4F       0.054100
     23 H23          8.7890     8.5470    44.0420 h1         1 N4F       0.059700
     24 H22          9.1620     7.7300    42.5170 h1         1 N4F       0.059700
     25 H18          9.6080     5.9140    45.9920 h1         1 N4F       0.066200
@<TRIPOS>BOND
     1     1     2 1   
     2     1    14 1   
     3     1    15 1   
     4     1    16 1   
     5     2     3 1   
     6     2    17 1   
     7     2    18 1   
     8     3    10 2   
     9     3    11 1   
    10     4     5 1   
    11     4    11 1   
    12     4    19 1   
    13     4    25 1   
    14     5     6 1   
    15     5    20 1   
    16     5    21 1   
    17     6     8 2   
    18     6    12 1   
    19     7    12 2   
    20     7    13 1   
    21     7    22 1   
    22     8     9 1   
    23     8    13 1   
    24     9    11 1   
    25     9    23 1   
    26     9    24 1   
@<TRIPOS>SUBSTRUCTURE
     1 N4F         1 TEMP              0 ****  ****    0 ROOT
