@<TRIPOS>MOLECULE
N4I
   65    68     1     0     0
SMALL
No Charge or Current Charge


@<TRIPOS>ATOM
      1 C1          -0.0330     1.4160     1.1930 c5         1 N4I       0.143500
      2 C2          -0.4160     2.6760     0.3250 c5         1 N4I       0.234500
      3 C3          -0.6430     3.8220     1.3810 c5         1 N4I       0.146800
      4 C4           2.0970    -0.4860    -2.8010 ca         1 N4I      -0.098600
      5 N4          -0.7550     3.1490     2.7020 n7         1 N4I      -0.873400
      6 C5           0.2450     2.0580     2.5950 c5         1 N4I       0.148800
      7 C6           4.0790    -0.0680     0.5980 ca         1 N4I      -0.124000
      8 N6           1.2210     0.7980     0.6550 n7         1 N4I      -0.862400
      9 C7           1.6610    -0.4400     1.3220 c3         1 N4I       0.202100
     10 C8           2.9860    -0.9450     0.7590 ca         1 N4I      -0.062300
     11 C9           5.3090    -0.5440     0.1180 ca         1 N4I       0.130100
     12 O10          6.3570     0.3140    -0.0310 oh         1 N4I      -0.535100
     13 C11          5.4630    -1.9020    -0.2010 ca         1 N4I      -0.206000
     14 C12          4.3800    -2.7840    -0.0440 ca         1 N4I      -0.072000
     15 C13          3.1470    -2.3060     0.4330 ca         1 N4I      -0.140000
     16 C14         -3.3340     0.9770     2.3360 ca         1 N4I      -0.108000
     17 C15         -3.5610    -0.2200     3.0360 ca         1 N4I      -0.070000
     18 C16         -3.7400    -1.4340     2.3390 ca         1 N4I      -0.192300
     19 C17         -3.9940    -2.7410     3.1000 c3         1 N4I       0.356300
     20 F18         -5.3150    -2.9440     3.3010 f          1 N4I      -0.113333
     21 F19         -3.5240    -3.8220     2.4350 f          1 N4I      -0.113333
     22 F20         -3.4030    -2.7520     4.3170 f          1 N4I      -0.113333
     23 N21         -1.6720     2.4110    -0.4700 n3         1 N4I      -0.790500
     24 C22         -3.0130     2.3020     0.1820 c3         1 N4I       0.280100
     25 C23         -3.2780     0.9900     0.9280 ca         1 N4I      -0.085300
     26 C24         -3.7100    -1.4180     0.9290 ca         1 N4I      -0.070000
     27 C25         -3.4820    -0.2180     0.2330 ca         1 N4I      -0.108000
     28 C26          3.2610    -1.4160    -3.0790 c          1 N4I       0.615700
     29 S27         -1.5980     2.2550    -2.1600 sy         1 N4I       1.184600
     30 N28          4.4720    -0.8720    -3.3320 nt         1 N4I      -0.598000
     31 O28         -2.7640     1.4630    -2.5650 o          1 N4I      -0.539500
     32 O29         -1.3580     3.6000    -2.6930 o          1 N4I      -0.539500
     33 C30         -0.1500     1.1980    -2.3790 ca         1 N4I      -0.270500
     34 C31         -0.2650    -0.1960    -2.2120 ca         1 N4I      -0.027500
     35 C32          0.8470    -1.0270    -2.4240 ca         1 N4I      -0.096000
     36 O33          3.1410    -2.6300    -3.1200 o          1 N4I      -0.603100
     37 C34          2.2090     0.9190    -2.9380 ca         1 N4I      -0.096000
     38 C35          1.0950     1.7530    -2.7350 ca         1 N4I      -0.027500
     39 H1          -0.8400     0.6780     1.2450 h1         1 N4I       0.048700
     40 H2           0.4150     2.9730    -0.3290 h1         1 N4I       0.079700
     41 H3           0.2380     4.4800     1.3820 h1         1 N4I       0.052700
     42 H3A         -1.5070     4.4610     1.1570 h1         1 N4I       0.052700
     43 HN4         -0.5090     3.7970     3.4630 hn         1 N4I       0.422000
     44 H5           0.1430     1.3290     3.4100 h1         1 N4I       0.049200
     45 H5A          1.2630     2.4720     2.6400 h1         1 N4I       0.049200
     46 H6           3.9730     0.9840     0.8520 ha         1 N4I       0.137000
     47 HN6          1.0750     0.5740    -0.3380 hn         1 N4I       0.417000
     48 H7           1.7920    -0.2710     2.3990 h1         1 N4I       0.042200
     49 H7A          0.8950    -1.2200     1.2060 h1         1 N4I       0.042200
     50 HO10         7.1310    -0.1980    -0.3480 ho         1 N4I       0.462000
     51 H11          6.4130    -2.2790    -0.5710 ha         1 N4I       0.111000
     52 H12          4.4950    -3.8370    -0.2930 ha         1 N4I       0.118000
     53 H13          2.3170    -2.9990     0.5550 ha         1 N4I       0.128000
     54 H14         -3.1900     1.8990     2.8950 ha         1 N4I       0.143500
     55 H15         -3.5950    -0.1970     4.1230 ha         1 N4I       0.131500
     56 H22         -3.1560     3.1260     0.8920 h1         1 N4I       0.076200
     57 H22A        -3.8180     2.4370    -0.5520 h1         1 N4I       0.076200
     58 H24         -3.8660    -2.3350     0.3640 ha         1 N4I       0.131500
     59 H25         -3.4680    -0.2360    -0.8520 ha         1 N4I       0.143500
     60 HN28         4.6010     0.1260    -3.2910 hn         1 N4I       0.318000
     61 HN2A         5.2520    -1.4830    -3.5200 hn         1 N4I       0.318000
     62 H31         -1.2180    -0.6410    -1.9300 ha         1 N4I       0.141000
     63 H32          0.7310    -2.1020    -2.3040 ha         1 N4I       0.131000
     64 H34          3.1490     1.3810    -3.2290 ha         1 N4I       0.131000
     65 H35          1.2030     2.8290    -2.8670 ha         1 N4I       0.141000
@<TRIPOS>BOND
     1     1     2 1   
     2     1     6 1   
     3     1     8 1   
     4     1    39 1   
     5     2     3 1   
     6     2    23 1   
     7     2    40 1   
     8     3     5 1   
     9     3    41 1   
    10     3    42 1   
    11     4    28 1   
    12     4    35 ar  
    13     4    37 ar  
    14     5     6 1   
    15     5    43 1   
    16     6    44 1   
    17     6    45 1   
    18     7    10 ar  
    19     7    11 ar  
    20     7    46 1   
    21     8     9 1   
    22     8    47 1   
    23     9    10 1   
    24     9    48 1   
    25     9    49 1   
    26    10    15 ar  
    27    11    12 1   
    28    11    13 ar  
    29    12    50 1   
    30    13    14 ar  
    31    13    51 1   
    32    14    15 ar  
    33    14    52 1   
    34    15    53 1   
    35    16    17 ar  
    36    16    25 ar  
    37    16    54 1   
    38    17    18 ar  
    39    17    55 1   
    40    18    19 1   
    41    18    26 ar  
    42    19    20 1   
    43    19    21 1   
    44    19    22 1   
    45    23    24 1   
    46    23    29 1   
    47    24    25 1   
    48    24    56 1   
    49    24    57 1   
    50    25    27 ar  
    51    26    27 ar  
    52    26    58 1   
    53    27    59 1   
    54    28    30 1   
    55    28    36 2   
    56    29    31 2   
    57    29    32 2   
    58    29    33 1   
    59    30    60 1   
    60    30    61 1   
    61    33    34 ar  
    62    33    38 ar  
    63    34    35 ar  
    64    34    62 1   
    65    35    63 1   
    66    37    38 ar  
    67    37    64 1   
    68    38    65 1   
@<TRIPOS>SUBSTRUCTURE
     1 N4I         1 TEMP              0 ****  ****    0 ROOT
