@<TRIPOS>MOLECULE
N4I
   65    68     1     0     0
SMALL
bcc


@<TRIPOS>ATOM
      1 C1           0.2410     1.5870     1.2950 c5         1 N4I       0.143500
      2 C2          -0.3190     2.7650     0.4570 c5         1 N4I       0.234500
      3 C3          -0.5240     3.8860     1.4810 c5         1 N4I       0.146800
      4 C4           1.5190    -1.1870    -2.5110 ca         1 N4I      -0.098600
      5 N4          -0.7600     3.1620     2.7160 n7         1 N4I      -0.818200
      6 C5           0.2540     2.1230     2.7340 c5         1 N4I       0.148800
      7 C6           4.4740     0.5860     0.9190 ca         1 N4I      -0.142000
      8 N6           1.5710     1.2240     0.8470 n7         1 N4I      -0.807200
      9 C7           2.1060     0.0640     1.5390 c3         1 N4I       0.202100
     10 C8           3.4290    -0.3320     0.9430 ca         1 N4I      -0.062300
     11 C9           5.6960     0.2460     0.3480 ca         1 N4I       0.130100
     12 O10          6.6730     1.1780     0.3560 oh         1 N4I      -0.496100
     13 C11          5.8750    -1.0190    -0.2090 ca         1 N4I      -0.224000
     14 C12          4.8280    -1.9270    -0.1890 ca         1 N4I      -0.090000
     15 C13          3.6090    -1.5920     0.3840 ca         1 N4I      -0.158000
     16 C14         -2.9710     0.5710     2.1270 ca         1 N4I      -0.126000
     17 C15         -3.2920    -0.6970     2.5850 ca         1 N4I      -0.088000
     18 C16         -3.8660    -1.6200     1.7190 ca         1 N4I      -0.192300
     19 C17         -4.2610    -2.9720     2.2200 c3         1 N4I       0.720200
     20 F18         -5.5120    -2.9730     2.7080 f          1 N4I      -0.234633
     21 F19         -4.2260    -3.9020     1.2580 f          1 N4I      -0.234633
     22 F20         -3.4660    -3.4000     3.2080 f          1 N4I      -0.234633
     23 N21         -1.5240     2.4330    -0.3080 n3         1 N4I      -0.790500
     24 C22         -2.8400     2.3210     0.3250 c3         1 N4I       0.280100
     25 C23         -3.2060     0.9360     0.8040 ca         1 N4I      -0.085300
     26 C24         -4.1300    -1.2600     0.4030 ca         1 N4I      -0.088000
     27 C25         -3.8040     0.0100    -0.0460 ca         1 N4I      -0.126000
     28 C26          2.3940    -2.3920    -2.7090 c          1 N4I       0.682700
     29 S27         -1.3540     2.2960    -1.9310 sy         1 N4I       1.326200
     30 N28          3.3900    -2.2690    -3.5930 nt         1 N4I      -0.665000
     31 O28         -2.6440     1.9010    -2.4760 o          1 N4I      -0.610300
     32 O29         -0.7040     3.4770    -2.4800 o          1 N4I      -0.610300
     33 C30         -0.2150     0.9450    -2.1400 ca         1 N4I      -0.270500
     34 C31         -0.5780    -0.3190    -1.6920 ca         1 N4I      -0.045500
     35 C32          0.2940    -1.3760    -1.8740 ca         1 N4I      -0.114000
     36 O33          2.1740    -3.4260    -2.0950 o          1 N4I      -0.603100
     37 C34          1.8750     0.0910    -2.9290 ca         1 N4I      -0.114000
     38 C35          1.0100     1.1610    -2.7520 ca         1 N4I      -0.045500
     39 H1          -0.4550     0.7380     1.2320 h1         1 N4I       0.048700
     40 H2           0.4420     3.0880    -0.2560 h1         1 N4I       0.079700
     41 H3           0.3920     4.4930     1.5090 h1         1 N4I       0.052700
     42 H3A         -1.3480     4.5550     1.2300 h1         1 N4I       0.052700
     43 HN4         -0.7040     3.7620     3.5280 hn         1 N4I       0.366800
     44 H5           0.0200     1.3570     3.4750 h1         1 N4I       0.049200
     45 H5A          1.2600     2.5110     2.9540 h1         1 N4I       0.049200
     46 H6           4.3370     1.5750     1.3410 ha         1 N4I       0.155000
     47 HN6          1.5370     1.0040    -0.1410 hn         1 N4I       0.361800
     48 H7           2.2410     0.3190     2.5950 h1         1 N4I       0.042200
     49 H7A          1.4190    -0.7950     1.5130 h1         1 N4I       0.042200
     50 HO10         7.4620     0.8390    -0.0800 ho         1 N4I       0.423000
     51 H11          6.8240    -1.2910    -0.6570 ha         1 N4I       0.129000
     52 H12          4.9650    -2.9050    -0.6310 ha         1 N4I       0.136000
     53 H13          2.7950    -2.3050     0.3820 ha         1 N4I       0.146000
     54 H14         -2.5280     1.2920     2.8030 ha         1 N4I       0.161500
     55 H15         -3.0910    -0.9490     3.6180 ha         1 N4I       0.149500
     56 H22         -2.8390     3.0010     1.1740 h1         1 N4I       0.076200
     57 H22A        -3.6020     2.6920    -0.3580 h1         1 N4I       0.076200
     58 H24         -4.5930    -1.9570    -0.2830 ha         1 N4I       0.149500
     59 H25         -4.0250     0.2760    -1.0710 ha         1 N4I       0.161500
     60 HN28         3.5260    -1.4540    -4.1640 hn         1 N4I       0.318000
     61 HN2A         4.0010    -3.0510    -3.7660 hn         1 N4I       0.318000
     62 H31         -1.5260    -0.4870    -1.1980 ha         1 N4I       0.159000
     63 H32          0.0130    -2.3610    -1.5300 ha         1 N4I       0.149000
     64 H34          2.8350     0.2910    -3.3870 ha         1 N4I       0.149000
     65 H35          1.3040     2.1480    -3.0800 ha         1 N4I       0.159000
@<TRIPOS>BOND
     1     1     2 1   
     2     1     6 1   
     3     1     8 1   
     4     1    39 1   
     5     2     3 1   
     6     2    23 1   
     7     2    40 1   
     8     3     5 1   
     9     3    41 1   
    10     3    42 1   
    11     4    28 1   
    12     4    35 ar  
    13     4    37 ar  
    14     5     6 1   
    15     5    43 1   
    16     6    44 1   
    17     6    45 1   
    18     7    10 ar  
    19     7    11 ar  
    20     7    46 1   
    21     8     9 1   
    22     8    47 1   
    23     9    10 1   
    24     9    48 1   
    25     9    49 1   
    26    10    15 ar  
    27    11    12 1   
    28    11    13 ar  
    29    12    50 1   
    30    13    14 ar  
    31    13    51 1   
    32    14    15 ar  
    33    14    52 1   
    34    15    53 1   
    35    16    17 ar  
    36    16    25 ar  
    37    16    54 1   
    38    17    18 ar  
    39    17    55 1   
    40    18    19 1   
    41    18    26 ar  
    42    19    20 1   
    43    19    21 1   
    44    19    22 1   
    45    23    24 1   
    46    23    29 1   
    47    24    25 1   
    48    24    56 1   
    49    24    57 1   
    50    25    27 ar  
    51    26    27 ar  
    52    26    58 1   
    53    27    59 1   
    54    28    30 1   
    55    28    36 2   
    56    29    31 2   
    57    29    32 2   
    58    29    33 1   
    59    30    60 1   
    60    30    61 1   
    61    33    34 ar  
    62    33    38 ar  
    63    34    35 ar  
    64    34    62 1   
    65    35    63 1   
    66    37    38 ar  
    67    37    64 1   
    68    38    65 1   
@<TRIPOS>SUBSTRUCTURE
     1 N4I         1 TEMP              0 ****  ****    0 ROOT
