@<TRIPOS>MOLECULE
N4K
   66    71     1     0     0
SMALL
No Charge or Current Charge


@<TRIPOS>ATOM
      1 C13          9.4490   -50.7120   -36.9080 c3         1 N4K       0.033600
      2 C14          8.3390   -49.8880   -37.6080 c3         1 N4K       0.145600
      3 C22          3.3720   -53.4010   -31.2110 c6         1 N4K      -0.130900
      4 C23          2.3790   -54.5680   -31.0140 c6         1 N4K       0.150300
      5 C30          7.8170   -53.7500   -33.7490 cc         1 N4K      -0.206000
      6 C31          7.2910   -54.8230   -34.3240 cd         1 N4K      -0.130000
      7 C33          6.5130   -55.1810   -32.1970 cc         1 N4K      -0.226000
      8 C01          7.2260   -55.8430   -36.6530 c3         1 N4K       0.064900
      9 C03          8.4330   -53.6610   -35.8940 cd         1 N4K      -0.169500
     10 C04          9.0460   -53.2850   -37.1620 cd         1 N4K       0.486000
     11 C06          9.8580   -53.4930   -39.1350 cc         1 N4K       0.265300
     12 C07         10.2040   -54.1150   -40.4590 cy         1 N4K      -0.103000
     13 C08         10.9060   -55.5150   -40.5430 cy         1 N4K      -0.081900
     14 C09         10.2560   -55.6330   -41.9610 cy         1 N4K      -0.093400
     15 C10          9.1000   -54.7620   -41.3670 cy         1 N4K      -0.081900
     16 C11         10.2020   -52.2280   -38.7630 cd         1 N4K      -0.225000
     17 C16          6.4250   -50.9170   -36.4110 ca         1 N4K       0.093100
     18 C17          5.5570   -52.0210   -36.4070 ca         1 N4K      -0.124000
     19 C18          4.8750   -52.3890   -35.2340 ca         1 N4K      -0.134000
     20 C19          5.0380   -51.6290   -34.0520 ca         1 N4K       0.126100
     21 C21          3.5280   -53.0630   -32.7110 c6         1 N4K       0.174300
     22 C25          1.1640   -53.9380   -33.0710 c6         1 N4K       0.150300
     23 C26          2.1320   -52.7600   -33.3170 c6         1 N4K      -0.130900
     24 C27          5.8890   -50.5120   -34.0670 ca         1 N4K      -0.134000
     25 C28          6.5840   -50.1530   -35.2350 ca         1 N4K      -0.124000
     26 C29          8.5460   -52.9970   -34.6780 cc         1 N4K      -0.126000
     27 C32          6.5320   -55.6760   -33.4900 cd         1 N4K      -0.113000
     28 N02          7.6520   -54.8340   -35.6700 na         1 N4K       0.068000
     29 N05          9.1470   -54.1370   -38.1750 nc         1 N4K      -0.676000
     30 N12          9.6400   -52.0520   -37.5080 na         1 N4K      -0.146500
     31 N24          1.0670   -54.2490   -31.6250 n7         1 N4K      -0.846400
     32 O15          7.0990   -50.6310   -37.5810 os         1 N4K      -0.338100
     33 O20          4.4180   -51.9360   -32.8530 os         1 N4K      -0.347100
     34 S34          7.4410   -53.6580   -32.0440 ss         1 N4K       0.187000
     35 H1           9.2240   -50.7680   -35.8470 h1         1 N4K       0.073200
     36 H2          10.3950   -50.1630   -36.9990 h1         1 N4K       0.073200
     37 H3           8.6390   -49.7110   -38.6490 h1         1 N4K       0.062200
     38 H4           8.2320   -48.9070   -37.1300 h1         1 N4K       0.062200
     39 H5           4.3470   -53.6710   -30.7850 hc         1 N4K       0.057200
     40 H6           3.0220   -52.5180   -30.6610 hc         1 N4K       0.057200
     41 H7           2.7890   -55.4810   -31.4740 h1         1 N4K       0.053450
     42 H8           2.2510   -54.7680   -29.9400 h1         1 N4K       0.053450
     43 H9           6.0300   -55.5930   -31.3210 h4         1 N4K       0.143000
     44 H10          6.5010   -56.5270   -36.1970 h1         1 N4K       0.056033
     45 H11          6.7560   -55.3460   -37.5090 h1         1 N4K       0.056033
     46 H12          8.0970   -56.4170   -36.9900 h1         1 N4K       0.056033
     47 H13         10.7690   -53.3350   -40.9860 hc         1 N4K       0.051700
     48 H14         10.5470   -56.2520   -39.8140 hc         1 N4K       0.054450
     49 H15         12.0010   -55.5040   -40.5160 hc         1 N4K       0.054450
     50 H16          9.9800   -56.6430   -42.2800 hc         1 N4K       0.045700
     51 H17         10.8240   -55.1510   -42.7660 hc         1 N4K       0.045700
     52 H18          8.6000   -54.0850   -42.0690 hc         1 N4K       0.054450
     53 H19          8.3340   -55.3280   -40.8240 hc         1 N4K       0.054450
     54 H20         10.7300   -51.4520   -39.3040 h4         1 N4K       0.154000
     55 H21          5.4370   -52.6130   -37.3110 ha         1 N4K       0.115500
     56 H22          4.2410   -53.2690   -35.2630 ha         1 N4K       0.121500
     57 H23          3.9740   -53.9390   -33.2050 h1         1 N4K       0.051700
     58 H24          0.1680   -53.6880   -33.4650 h1         1 N4K       0.053450
     59 H25          1.5210   -54.8260   -33.6160 h1         1 N4K       0.053450
     60 H26          1.7230   -51.8450   -32.8680 hc         1 N4K       0.057200
     61 H27          2.2060   -52.5690   -34.3950 hc         1 N4K       0.057200
     62 H28          6.0190   -49.9260   -33.1600 ha         1 N4K       0.121500
     63 H29          7.2350   -49.2840   -35.2110 ha         1 N4K       0.115500
     64 H30          9.1120   -52.1140   -34.4180 ha         1 N4K       0.136000
     65 H31          6.0410   -56.5900   -33.8100 ha         1 N4K       0.133000
     66 H32          0.6780   -53.4280   -31.1440 hn         1 N4K       0.407000
@<TRIPOS>BOND
     1     1     2 1   
     2     1    30 1   
     3     1    35 1   
     4     1    36 1   
     5     2    32 1   
     6     2    37 1   
     7     2    38 1   
     8     3     4 1   
     9     3    21 1   
    10     3    39 1   
    11     3    40 1   
    12     4    31 1   
    13     4    41 1   
    14     4    42 1   
    15     5     6 2   
    16     5    26 1   
    17     5    34 1   
    18     6    27 1   
    19     6    28 1   
    20     7    27 2   
    21     7    34 1   
    22     7    43 1   
    23     8    28 1   
    24     8    44 1   
    25     8    45 1   
    26     8    46 1   
    27     9    10 1   
    28     9    26 2   
    29     9    28 1   
    30    10    29 2   
    31    10    30 1   
    32    11    12 1   
    33    11    16 2   
    34    11    29 1   
    35    12    13 1   
    36    12    15 1   
    37    12    47 1   
    38    13    14 1   
    39    13    48 1   
    40    13    49 1   
    41    14    15 1   
    42    14    50 1   
    43    14    51 1   
    44    15    52 1   
    45    15    53 1   
    46    16    30 1   
    47    16    54 1   
    48    17    18 ar  
    49    17    25 ar  
    50    17    32 1   
    51    18    19 ar  
    52    18    55 1   
    53    19    20 ar  
    54    19    56 1   
    55    20    24 ar  
    56    20    33 1   
    57    21    23 1   
    58    21    33 1   
    59    21    57 1   
    60    22    23 1   
    61    22    31 1   
    62    22    58 1   
    63    22    59 1   
    64    23    60 1   
    65    23    61 1   
    66    24    25 ar  
    67    24    62 1   
    68    25    63 1   
    69    26    64 1   
    70    27    65 1   
    71    31    66 1   
@<TRIPOS>SUBSTRUCTURE
     1 N4K         1 TEMP              0 ****  ****    0 ROOT
