@<TRIPOS>MOLECULE
N4K
   66    71     1     0     0
SMALL
bcc


@<TRIPOS>ATOM
      1 C13          9.0930   -50.7860   -37.1250 c3         1 N4K       0.004300
      2 C14          7.8200   -50.2200   -37.7350 c3         1 N4K       0.122400
      3 C22          3.5900   -53.1950   -30.8660 c6         1 N4K      -0.130900
      4 C23          2.6390   -54.3420   -30.5140 c6         1 N4K       0.150300
      5 C30          7.6440   -54.0160   -34.1630 cc         1 N4K      -0.061100
      6 C31          6.9620   -54.8660   -35.0200 cd         1 N4K      -0.079300
      7 C33          5.9620   -55.4320   -33.0490 cc         1 N4K      -0.099100
      8 C01          6.8940   -55.3240   -37.4570 c3         1 N4K       0.035600
      9 C03          8.3900   -53.6900   -36.2350 cd         1 N4K      -0.118800
     10 C04          9.1170   -53.3020   -37.4300 cd         1 N4K       0.486000
     11 C06         10.1990   -53.4290   -39.2810 cc         1 N4K       0.330600
     12 C07         10.8090   -54.0690   -40.4710 cy         1 N4K      -0.103000
     13 C08         11.6860   -55.3280   -40.2690 cy         1 N4K      -0.081900
     14 C09         11.0560   -55.9300   -41.5380 cy         1 N4K      -0.093400
     15 C10          9.9030   -54.9220   -41.3930 cy         1 N4K      -0.081900
     16 C11         10.1780   -52.1090   -38.9280 cd         1 N4K      -0.257600
     17 C16          6.1480   -51.1920   -36.3290 ca         1 N4K       0.093100
     18 C17          5.2380   -52.2290   -36.1710 ca         1 N4K      -0.142000
     19 C18          4.6090   -52.4530   -34.9580 ca         1 N4K      -0.152000
     20 C19          4.8840   -51.6390   -33.8620 ca         1 N4K       0.126100
     21 C21          3.5010   -52.8930   -32.3520 c6         1 N4K       0.151100
     22 C25          1.1630   -53.7760   -32.3250 c6         1 N4K       0.150300
     23 C26          2.0570   -52.6060   -32.7450 c6         1 N4K      -0.130900
     24 C27          5.7780   -50.5870   -34.0280 ca         1 N4K      -0.152000
     25 C28          6.4050   -50.3600   -35.2440 ca         1 N4K      -0.142000
     26 C29          8.5570   -53.2680   -34.9290 cc         1 N4K      -0.144000
     27 C32          5.9900   -55.6840   -34.3850 cd         1 N4K      -0.131000
     28 N02          7.4160   -54.6610   -36.2840 na         1 N4K      -0.004100
     29 N05          9.5400   -54.1570   -38.3350 nc         1 N4K      -0.676000
     30 N12          9.4910   -52.0340   -37.7450 na         1 N4K      -0.167900
     31 N24          1.2610   -54.1130   -30.9150 n7         1 N4K      -0.791200
     32 O15          6.7040   -51.0630   -37.5640 os         1 N4K      -0.314900
     33 O20          4.3530   -51.7890   -32.6270 os         1 N4K      -0.323900
     34 S34          7.0890   -54.2110   -32.5460 ss         1 N4K      -0.102800
     35 H1           8.9850   -50.9280   -36.0530 h1         1 N4K       0.073200
     36 H2           9.8960   -50.0630   -37.2670 h1         1 N4K       0.073200
     37 H3           7.9450   -50.1110   -38.8130 h1         1 N4K       0.062200
     38 H4           7.6450   -49.2170   -37.3330 h1         1 N4K       0.062200
     39 H5           4.6150   -53.4650   -30.5980 hc         1 N4K       0.057200
     40 H6           3.3220   -52.3050   -30.2870 hc         1 N4K       0.057200
     41 H7           2.9860   -55.2600   -31.0010 h1         1 N4K       0.053450
     42 H8           2.6680   -54.5330   -29.4400 h1         1 N4K       0.053450
     43 H9           5.3350   -55.9080   -32.3110 h4         1 N4K       0.161000
     44 H10          5.8910   -55.6820   -37.2380 h1         1 N4K       0.056033
     45 H11          6.8350   -54.6300   -38.2910 h1         1 N4K       0.056033
     46 H12          7.5130   -56.1680   -37.7550 h1         1 N4K       0.056033
     47 H13         11.3480   -53.3200   -41.0570 hc         1 N4K       0.051700
     48 H14         11.3810   -55.8700   -39.3730 hc         1 N4K       0.054450
     49 H15         12.7670   -55.1890   -40.2470 hc         1 N4K       0.054450
     50 H16         10.8060   -56.9910   -41.5240 hc         1 N4K       0.045700
     51 H17         11.6620   -55.7300   -42.4240 hc         1 N4K       0.045700
     52 H18          9.5150   -54.4470   -42.2950 hc         1 N4K       0.054450
     53 H19          9.0670   -55.3420   -40.8310 hc         1 N4K       0.054450
     54 H20         10.5900   -51.2330   -39.4020 h4         1 N4K       0.172000
     55 H21          5.0210   -52.8810   -37.0080 ha         1 N4K       0.133500
     56 H22          3.9190   -53.2830   -34.8920 ha         1 N4K       0.139500
     57 H23          3.8610   -53.7780   -32.8930 h1         1 N4K       0.051700
     58 H24          0.1220   -53.5530   -32.5650 h1         1 N4K       0.053450
     59 H25          1.4340   -54.6630   -32.9080 h1         1 N4K       0.053450
     60 H26          1.7240   -51.6920   -32.2430 hc         1 N4K       0.057200
     61 H27          1.9620   -52.4360   -33.8210 hc         1 N4K       0.057200
     62 H28          6.0000   -49.9390   -33.1890 ha         1 N4K       0.139500
     63 H29          7.0970   -49.5310   -35.3070 ha         1 N4K       0.133500
     64 H30          9.2700   -52.5380   -34.5830 ha         1 N4K       0.154000
     65 H31          5.3570   -56.4130   -34.8700 ha         1 N4K       0.151000
     66 H32          0.8820   -53.3490   -30.3670 hn         1 N4K       0.351800
@<TRIPOS>BOND
     1     1     2 1   
     2     1    30 1   
     3     1    35 1   
     4     1    36 1   
     5     2    32 1   
     6     2    37 1   
     7     2    38 1   
     8     3     4 1   
     9     3    21 1   
    10     3    39 1   
    11     3    40 1   
    12     4    31 1   
    13     4    41 1   
    14     4    42 1   
    15     5     6 2   
    16     5    26 1   
    17     5    34 1   
    18     6    27 1   
    19     6    28 1   
    20     7    27 2   
    21     7    34 1   
    22     7    43 1   
    23     8    28 1   
    24     8    44 1   
    25     8    45 1   
    26     8    46 1   
    27     9    10 1   
    28     9    26 2   
    29     9    28 1   
    30    10    29 2   
    31    10    30 1   
    32    11    12 1   
    33    11    16 2   
    34    11    29 1   
    35    12    13 1   
    36    12    15 1   
    37    12    47 1   
    38    13    14 1   
    39    13    48 1   
    40    13    49 1   
    41    14    15 1   
    42    14    50 1   
    43    14    51 1   
    44    15    52 1   
    45    15    53 1   
    46    16    30 1   
    47    16    54 1   
    48    17    18 ar  
    49    17    25 ar  
    50    17    32 1   
    51    18    19 ar  
    52    18    55 1   
    53    19    20 ar  
    54    19    56 1   
    55    20    24 ar  
    56    20    33 1   
    57    21    23 1   
    58    21    33 1   
    59    21    57 1   
    60    22    23 1   
    61    22    31 1   
    62    22    58 1   
    63    22    59 1   
    64    23    60 1   
    65    23    61 1   
    66    24    25 ar  
    67    24    62 1   
    68    25    63 1   
    69    26    64 1   
    70    27    65 1   
    71    31    66 1   
@<TRIPOS>SUBSTRUCTURE
     1 N4K         1 TEMP              0 ****  ****    0 ROOT
