@<TRIPOS>MOLECULE
N4L
   46    48     1     0     0
SMALL
abcg2


@<TRIPOS>ATOM
      1 N1           5.2900     1.3420    17.9370 ns         1 N4L      -0.373100
      2 C4          14.0720    -0.9470    22.1370 ca         1 N4L      -0.108000
      3 C5          12.8210    -1.5440    21.9550 ca         1 N4L      -0.163000
      4 C6          11.6640    -0.8600    22.2970 ca         1 N4L       0.106100
      5 C7          10.2310    -2.6270    21.5320 c3         1 N4L       0.142600
      6 C8           8.7430    -2.8600    21.4180 c3         1 N4L       0.105000
      7 C10          6.3340    -0.5990    19.5580 cc         1 N4L      -0.032400
      8 C13          5.1010     1.4740    19.2950 ca         1 N4L       0.103600
      9 C15          4.2080     2.7350    21.1230 ca         1 N4L      -0.048000
     10 C17          5.4660     0.7010    21.5800 ca         1 N4L       0.000700
     11 C12          5.9870     0.3390    17.3140 c          1 N4L       0.557200
     12 C11          6.5120    -0.6620    18.2150 cd         1 N4L      -0.271200
     13 C19          5.6360     0.5040    20.1800 ca         1 N4L      -0.109800
     14 C18          6.0500    -0.2120    22.6250 c3         1 N4L      -0.069800
     15 C16          4.7520     1.8070    22.0150 ca         1 N4L      -0.156000
     16 C14          4.3840     2.5790    19.7670 ca         1 N4L      -0.176000
     17 C9           6.8250    -1.8010    20.3270 c          1 N4L       0.599300
     18 O2           6.0550    -2.7200    20.6030 o          1 N4L      -0.594100
     19 N            8.1320    -1.8120    20.6140 ns         1 N4L      -0.492900
     20 O1          10.4030    -1.3570    22.1610 os         1 N4L      -0.349100
     21 C1          11.7510     0.4450    22.8300 ca         1 N4L       0.111100
     22 O           10.5660     1.0420    23.1320 os         1 N4L      -0.335100
     23 C           10.6010     2.3620    23.6700 c3         1 N4L       0.146900
     24 C3          14.1590     0.3300    22.6630 ca         1 N4L      -0.104000
     25 C2          12.9990     1.0270    23.0100 ca         1 N4L      -0.165000
     26 H1           4.8990     2.0520    17.3310 hn         1 N4L       0.328500
     27 H3          12.7610    -2.5430    21.5490 ha         1 N4L       0.118000
     28 H4          10.6830    -3.4190    22.1330 h1         1 N4L       0.047700
     29 H5          10.7020    -2.6190    20.5440 h1         1 N4L       0.047700
     30 H6           8.2890    -2.8770    22.4130 h1         1 N4L       0.065200
     31 H7           8.5670    -3.8310    20.9530 h1         1 N4L       0.065200
     32 H8           3.6550     3.5850    21.5010 ha         1 N4L       0.118000
     33 H9           7.0400    -1.4900    17.7610 ha         1 N4L       0.215000
     34 H10          7.1370    -0.2680    22.5450 hc         1 N4L       0.057700
     35 H11          5.8080     0.1670    23.6160 hc         1 N4L       0.057700
     36 H12          5.6630    -1.2280    22.5460 hc         1 N4L       0.057700
     37 H13          4.6210     1.9570    23.0790 ha         1 N4L       0.118000
     38 H14          3.9860     3.2950    19.0590 ha         1 N4L       0.121000
     39 H15          8.6680    -0.9730    20.4460 hn         1 N4L       0.334500
     40 H16          9.5640     2.6440    23.8320 h1         1 N4L       0.042033
     41 H17         11.1420     2.3860    24.6190 h1         1 N4L       0.042033
     42 H18         11.0660     3.0600    22.9700 h1         1 N4L       0.042033
     43 H19         15.1240     0.7990    22.8090 ha         1 N4L       0.116000
     44 H20         13.0780     2.0240    23.4180 ha         1 N4L       0.120000
     45 O3           6.1230     0.3220    16.0850 o          1 N4L      -0.554000
     46 H2          14.9660    -1.4930    21.8650 ha         1 N4L       0.117000
@<TRIPOS>BOND
     1     1     8 1   
     2     1    11 1   
     3     1    26 1   
     4     2     3 ar  
     5     2    24 ar  
     6     2    46 1   
     7     3     4 ar  
     8     3    27 1   
     9     4    20 1   
    10     4    21 ar  
    11     5     6 1   
    12     5    20 1   
    13     5    28 1   
    14     5    29 1   
    15     6    19 1   
    16     6    30 1   
    17     6    31 1   
    18     7    12 2   
    19     7    13 1   
    20     7    17 1   
    21     8    13 ar  
    22     8    16 ar  
    23     9    15 ar  
    24     9    16 ar  
    25     9    32 1   
    26    10    13 ar  
    27    10    14 1   
    28    10    15 ar  
    29    11    12 1   
    30    11    45 2   
    31    12    33 1   
    32    14    34 1   
    33    14    35 1   
    34    14    36 1   
    35    15    37 1   
    36    16    38 1   
    37    17    18 2   
    38    17    19 1   
    39    19    39 1   
    40    21    22 1   
    41    21    25 ar  
    42    22    23 1   
    43    23    40 1   
    44    23    41 1   
    45    23    42 1   
    46    24    25 ar  
    47    24    43 1   
    48    25    44 1   
@<TRIPOS>SUBSTRUCTURE
     1 N4L         1 TEMP              0 ****  ****    0 ROOT
