@<TRIPOS>MOLECULE
N4L
   46    48     1     0     0
SMALL
No Charge or Current Charge


@<TRIPOS>ATOM
      1 N1           4.6990     0.7910    17.9570 ns         1 N4L      -0.373100
      2 C4          13.9630    -0.5610    22.2950 ca         1 N4L      -0.108000
      3 C5          12.8440    -1.2570    21.8080 ca         1 N4L      -0.163000
      4 C6          11.5510    -0.9590    22.2990 ca         1 N4L       0.106100
      5 C7          10.5050    -2.7070    20.8890 c3         1 N4L       0.142600
      6 C8           9.0760    -3.2100    20.5800 c3         1 N4L       0.105000
      7 C10          6.6100    -0.4060    19.6420 cc         1 N4L      -0.032400
      8 C13          4.7390     1.2140    19.2870 ca         1 N4L       0.103600
      9 C15          3.9720     2.7730    20.9750 ca         1 N4L      -0.048000
     10 C17          5.9790     1.4240    21.3610 ca         1 N4L       0.000700
     11 C12          5.5980    -0.0210    17.3380 c          1 N4L       0.557200
     12 C11          6.5750    -0.6270    18.2590 cd         1 N4L      -0.271200
     13 C19          5.7650     0.7280    20.1290 ca         1 N4L      -0.109800
     14 C18          7.2240     1.2640    22.2300 c3         1 N4L      -0.069800
     15 C16          5.0590     2.4090    21.7780 ca         1 N4L      -0.156000
     16 C14          3.8350     2.1990    19.7080 ca         1 N4L      -0.176000
     17 C9           7.2940    -1.4100    20.5370 c          1 N4L       0.599300
     18 O2           7.0290    -1.5790    21.7180 o          1 N4L      -0.594100
     19 N            8.2400    -2.1990    19.9090 ns         1 N4L      -0.492900
     20 O1          10.4260    -1.6240    21.8370 os         1 N4L      -0.349100
     21 C1          11.3920     0.0450    23.2880 ca         1 N4L       0.111100
     22 O           10.1190     0.3170    23.7630 os         1 N4L      -0.335100
     23 C            9.8660     1.3100    24.7730 c3         1 N4L       0.146900
     24 C3          13.8060     0.4340    23.2720 ca         1 N4L      -0.104000
     25 C2          12.5280     0.7380    23.7690 ca         1 N4L      -0.165000
     26 H1           3.9880     1.1990    17.3630 hn         1 N4L       0.328500
     27 H3          13.0010    -2.0200    21.0520 ha         1 N4L       0.118000
     28 H4          11.0940    -3.5370    21.3020 h1         1 N4L       0.047700
     29 H5          10.9780    -2.3760    19.9560 h1         1 N4L       0.047700
     30 H6           8.5970    -3.5400    21.5110 h1         1 N4L       0.065200
     31 H7           9.1480    -4.0870    19.9220 h1         1 N4L       0.065200
     32 H8           3.2790     3.5440    21.3070 ha         1 N4L       0.118000
     33 H9           7.1580    -1.3900    17.7600 ha         1 N4L       0.215000
     34 H10          8.0860     0.9000    21.6610 hc         1 N4L       0.057700
     35 H11          7.5270     2.2280    22.6550 hc         1 N4L       0.057700
     36 H12          7.0410     0.5890    23.0730 hc         1 N4L       0.057700
     37 H13          5.2070     2.9220    22.7260 ha         1 N4L       0.118000
     38 H14          3.0460     2.5430    19.0450 ha         1 N4L       0.121000
     39 H15          8.4400    -1.9870    18.9410 hn         1 N4L       0.334500
     40 H16          8.7940     1.3530    25.0030 h1         1 N4L       0.042033
     41 H17         10.4020     1.0700    25.7000 h1         1 N4L       0.042033
     42 H18         10.1800     2.3040    24.4300 h1         1 N4L       0.042033
     43 H19         14.6760     0.9690    23.6450 ha         1 N4L       0.116000
     44 H20         12.4400     1.5120    24.5260 ha         1 N4L       0.120000
     45 O3           5.5520    -0.2550    16.1420 o          1 N4L      -0.554000
     46 H2          14.9560    -0.7940    21.9140 ha         1 N4L       0.117000
@<TRIPOS>BOND
     1     1     8 1   
     2     1    11 1   
     3     1    26 1   
     4     2     3 ar  
     5     2    24 ar  
     6     2    46 1   
     7     3     4 ar  
     8     3    27 1   
     9     4    20 1   
    10     4    21 ar  
    11     5     6 1   
    12     5    20 1   
    13     5    28 1   
    14     5    29 1   
    15     6    19 1   
    16     6    30 1   
    17     6    31 1   
    18     7    12 2   
    19     7    13 1   
    20     7    17 1   
    21     8    13 ar  
    22     8    16 ar  
    23     9    15 ar  
    24     9    16 ar  
    25     9    32 1   
    26    10    13 ar  
    27    10    14 1   
    28    10    15 ar  
    29    11    12 1   
    30    11    45 2   
    31    12    33 1   
    32    14    34 1   
    33    14    35 1   
    34    14    36 1   
    35    15    37 1   
    36    16    38 1   
    37    17    18 2   
    38    17    19 1   
    39    19    39 1   
    40    21    22 1   
    41    21    25 ar  
    42    22    23 1   
    43    23    40 1   
    44    23    41 1   
    45    23    42 1   
    46    24    25 ar  
    47    24    43 1   
    48    25    44 1   
@<TRIPOS>SUBSTRUCTURE
     1 N4L         1 TEMP              0 ****  ****    0 ROOT
