@<TRIPOS>MOLECULE
N4M
   95    98     1     0     0
SMALL
No Charge or Current Charge


@<TRIPOS>ATOM
      1 N2           9.1690     0.9250    -0.5570 nu         1 N4M      -0.733200
      2 C6           8.8690    -0.3410    -1.1020 cc         1 N4M      -0.196200
      3 C7           9.6260    -1.4490    -0.8030 cd         1 N4M       0.352000
      4 N4           9.2510    -2.6390    -1.3460 na         1 N4M      -0.805200
      5 C8           8.1820    -2.7750    -2.1410 cc         1 N4M       0.876100
      6 N6           7.9180    -3.9710    -2.5880 nv         1 N4M      -1.044200
      7 N5           7.4400    -1.7820    -2.4690 nd         1 N4M      -0.756100
      8 C9           7.6970    -0.5090    -1.9950 c          1 N4M       0.745700
      9 O1           6.9590     0.4070    -2.3310 o          1 N4M      -0.559100
     10 N3          10.7140    -1.4170     0.0040 nu         1 N4M      -0.857200
     11 C2          11.2690    -0.1040     0.4360 c6         1 N4M       0.215500
     12 C1          12.3670     0.3170    -0.5760 c3         1 N4M      -0.111100
     13 C3          10.1490     1.0170     0.5710 c6         1 N4M       0.155500
     14 C4           9.4140     0.9670     1.9750 c3         1 N4M       0.225500
     15 C31         10.3190     1.3430     3.1700 c3         1 N4M      -0.099100
     16 N1           8.2200     1.8510     2.0410 nu         1 N4M      -0.935200
     17 C10          6.9470     1.5870     1.5300 ca         1 N4M       0.300000
     18 C11          6.4530     0.2770     1.4010 ca         1 N4M      -0.180500
     19 C12          5.1690     0.0480     0.8770 ca         1 N4M      -0.072000
     20 C15          6.1400     2.6670     1.1400 ca         1 N4M      -0.180500
     21 C14          4.8540     2.4440     0.6170 ca         1 N4M      -0.072000
     22 C13          4.3610     1.1320     0.4840 ca         1 N4M      -0.130300
     23 C16          2.9650     0.8900    -0.0850 c3         1 N4M      -0.066100
     24 C17          1.8370     1.3660     0.8640 c3         1 N4M       0.141300
     25 O16          1.9520     0.6600     2.1160 oh         1 N4M      -0.711000
     26 C18          0.4010     1.1660     0.2820 c3         1 N4M       0.141300
     27 O15          0.1430    -0.2460     0.1490 oh         1 N4M      -0.648000
     28 C19         -0.6940     1.8450     1.1700 c3         1 N4M       0.151300
     29 O14         -0.6250     1.3180     2.5140 oh         1 N4M      -0.704000
     30 C20         -2.1250     1.6920     0.5780 c3         1 N4M       0.144600
     31 O2          -3.0300     2.5450     1.3090 os         1 N4M      -0.479000
     32 C21         -4.4020     2.5590     0.8630 c5         1 N4M       0.351300
     33 C22         -5.2000     3.5110     1.8060 c5         1 N4M       0.105300
     34 O13         -4.8310     3.3160     3.1880 oh         1 N4M      -0.680000
     35 C23         -6.6530     2.9920     1.5330 c5         1 N4M       0.137300
     36 O12         -7.4140     3.1080     2.7350 oh         1 N4M      -0.638000
     37 O3          -5.0010     1.2890     1.1290 os         1 N4M      -0.449000
     38 C24         -6.4380     1.5040     1.0520 c5         1 N4M       0.166300
     39 C25         -6.9580     1.2660    -0.3950 c3         1 N4M       0.243600
     40 O4          -6.7640    -0.1100    -0.7480 os         1 N4M      -0.576400
     41 P           -7.4460    -0.6500    -2.1010 p5         1 N4M       1.413800
     42 O5          -7.3280     0.3560    -3.1990 o          1 N4M      -0.855000
     43 O6          -6.8730    -1.9660    -2.5160 o          1 N4M      -0.855000
     44 O7          -8.9760    -0.7960    -1.5980 os         1 N4M      -0.598400
     45 C26         -9.3750    -1.8960    -0.7300 c3         1 N4M       0.091300
     46 C30         -9.2610    -1.5840     0.8130 c          1 N4M       0.706000
     47 O10         -9.3370    -0.4270     1.2120 o          1 N4M      -0.769500
     48 O11         -9.0660    -2.5230     1.5760 o          1 N4M      -0.769500
     49 C27        -10.8310    -2.2830    -1.1060 c3         1 N4M      -0.041400
     50 C28        -11.0000    -2.8400    -2.5450 c3         1 N4M      -0.191400
     51 C29        -12.4570    -3.2820    -2.7750 c          1 N4M       0.709000
     52 O9         -13.2540    -2.4590    -3.1970 o          1 N4M      -0.787000
     53 O8         -12.7680    -4.4270    -2.4840 o          1 N4M      -0.787000
     54 H1           8.0850    -4.7160    -1.9290 hn         1 N4M       0.493500
     55 H2           7.0230    -4.0180    -3.0530 hn         1 N4M       0.493500
     56 H4          11.7780    -0.2250     1.4020 h1         1 N4M       0.060700
     57 H5          11.9530     0.4580    -1.5820 hc         1 N4M       0.044033
     58 H6          12.8370     1.2600    -0.2740 hc         1 N4M       0.044033
     59 H7          13.1580    -0.4390    -0.6410 hc         1 N4M       0.044033
     60 H8          10.6470     1.9970     0.5260 h1         1 N4M       0.072700
     61 H9           9.1000    -0.0710     2.1420 h1         1 N4M       0.034700
     62 H10         10.7350     2.3510     3.0450 hc         1 N4M       0.039700
     63 H11          9.7500     1.3200     4.1070 hc         1 N4M       0.039700
     64 H12         11.1510     0.6400     3.2800 hc         1 N4M       0.039700
     65 H13          8.4120     2.8390     2.2040 hn         1 N4M       0.497000
     66 H14          7.0560    -0.5730     1.7010 ha         1 N4M       0.109000
     67 H15          4.8050    -0.9720     0.7790 ha         1 N4M       0.112500
     68 H16          6.5070     3.6840     1.2360 ha         1 N4M       0.109000
     69 H17          4.2430     3.2920     0.3140 ha         1 N4M       0.112500
     70 H18          2.8660     1.4200    -1.0410 hc         1 N4M       0.062200
     71 H19          2.8260    -0.1730    -0.3170 hc         1 N4M       0.062200
     72 H20          1.9810     2.4410     1.0360 h1         1 N4M       0.032700
     73 H21          2.9140     0.6480     2.3360 ho         1 N4M       0.500000
     74 H22          0.3670     1.6460    -0.7070 h1         1 N4M       0.073700
     75 H23          0.5980    -0.6610     0.9160 ho         1 N4M       0.452000
     76 H24         -0.4660     2.9200     1.1880 h1         1 N4M       0.062700
     77 H25          0.3240     1.0220     2.6080 ho         1 N4M       0.517000
     78 H26         -2.1070     1.9790    -0.4820 h1         1 N4M       0.046700
     79 H27         -2.4390     0.6410     0.6390 h1         1 N4M       0.046700
     80 H28         -4.4890     2.8360    -0.1950 h2         1 N4M       0.011700
     81 H29         -5.0800     4.5640     1.5190 h1         1 N4M       0.005700
     82 H30         -3.9330     2.9040     3.1350 ho         1 N4M       0.504000
     83 H31         -7.1250     3.5850     0.7380 h1         1 N4M       0.017700
     84 H32         -6.7090     3.2200     3.4210 ho         1 N4M       0.466000
     85 H33         -6.9450     0.7920     1.7160 h1         1 N4M       0.139700
     86 H34         -8.0230     1.5310    -0.4340 h1         1 N4M       0.026700
     87 H35         -6.4200     1.9250    -1.0890 h1         1 N4M       0.026700
     88 H37         -8.7500    -2.7780    -0.9220 h1         1 N4M       0.026700
     89 H39        -11.1790    -3.0440    -0.3970 hc         1 N4M       0.029700
     90 H40        -11.4840    -1.4120    -0.9690 hc         1 N4M       0.029700
     91 H41        -10.7390    -2.0200    -3.2240 hc         1 N4M       0.023700
     92 H42        -10.3250    -3.7020    -2.6130 hc         1 N4M       0.023700
     93 H44          8.3940     1.5930    -0.5510 hn         1 N4M       0.448000
     94 H45          9.7970    -3.4610    -1.1700 hn         1 N4M       0.493000
     95 H3          11.3170    -2.2360    -0.0040 hn         1 N4M       0.489000
@<TRIPOS>BOND
     1     1     2 1   
     2     1    13 1   
     3     1    93 1   
     4     2     3 2   
     5     2     8 1   
     6     3     4 1   
     7     3    10 1   
     8     4     5 1   
     9     4    94 1   
    10     5     6 1   
    11     5     7 2   
    12     6    54 1   
    13     6    55 1   
    14     7     8 1   
    15     8     9 2   
    16    10    11 1   
    17    10    95 1   
    18    11    12 1   
    19    11    13 1   
    20    11    56 1   
    21    12    57 1   
    22    12    58 1   
    23    12    59 1   
    24    13    14 1   
    25    13    60 1   
    26    14    15 1   
    27    14    16 1   
    28    14    61 1   
    29    15    62 1   
    30    15    63 1   
    31    15    64 1   
    32    16    17 1   
    33    16    65 1   
    34    17    18 ar  
    35    17    20 ar  
    36    18    19 ar  
    37    18    66 1   
    38    19    22 ar  
    39    19    67 1   
    40    20    21 ar  
    41    20    68 1   
    42    21    22 ar  
    43    21    69 1   
    44    22    23 1   
    45    23    24 1   
    46    23    70 1   
    47    23    71 1   
    48    24    25 1   
    49    24    26 1   
    50    24    72 1   
    51    25    73 1   
    52    26    27 1   
    53    26    28 1   
    54    26    74 1   
    55    27    75 1   
    56    28    29 1   
    57    28    30 1   
    58    28    76 1   
    59    29    77 1   
    60    30    31 1   
    61    30    78 1   
    62    30    79 1   
    63    31    32 1   
    64    32    33 1   
    65    32    37 1   
    66    32    80 1   
    67    33    34 1   
    68    33    35 1   
    69    33    81 1   
    70    34    82 1   
    71    35    36 1   
    72    35    38 1   
    73    35    83 1   
    74    36    84 1   
    75    37    38 1   
    76    38    39 1   
    77    38    85 1   
    78    39    40 1   
    79    39    86 1   
    80    39    87 1   
    81    40    41 1   
    82    41    42 1   
    83    41    43 1   
    84    41    44 1   
    85    44    45 1   
    86    45    46 1   
    87    45    49 1   
    88    45    88 1   
    89    46    47 1   
    90    46    48 1   
    91    49    50 1   
    92    49    89 1   
    93    49    90 1   
    94    50    51 1   
    95    50    91 1   
    96    50    92 1   
    97    51    52 1   
    98    51    53 1   
@<TRIPOS>SUBSTRUCTURE
     1 N4M         1 TEMP              0 ****  ****    0 ROOT
