@<TRIPOS>MOLECULE
N4M
   95    98     1     0     0
SMALL
bcc


@<TRIPOS>ATOM
      1 N2          10.2790     1.6810    -0.1980 nu         1 N4M      -0.678000
      2 C6          10.1460     0.6700    -1.1750 cc         1 N4M      -0.196200
      3 C7          10.5170    -0.6130    -0.8820 cd         1 N4M       0.352000
      4 N4          10.2560    -1.6010    -1.7950 na         1 N4M      -0.750000
      5 C8           9.6650    -1.2950    -2.9810 cc         1 N4M       0.876100
      6 N6           9.5010    -2.3160    -3.8470 nv         1 N4M      -0.933800
      7 N5           9.3060    -0.0910    -3.3090 nd         1 N4M      -0.756100
      8 C9           9.5020     0.9530    -2.4310 c          1 N4M       0.745700
      9 O1           9.1340     2.0890    -2.7370 o          1 N4M      -0.559100
     10 N3          11.1010    -0.9630     0.2780 nu         1 N4M      -0.802000
     11 C2          11.4020     0.0500     1.2720 c6         1 N4M       0.215500
     12 C1          12.8160     0.5920     1.1090 c3         1 N4M      -0.111100
     13 C3          10.3500     1.1720     1.1550 c6         1 N4M       0.155500
     14 C4           8.9610     0.6920     1.6400 c3         1 N4M       0.225500
     15 C31          8.9030     0.7040     3.1650 c3         1 N4M      -0.099100
     16 N1           7.9450     1.5500     1.0680 nu         1 N4M      -0.741600
     17 C10          6.6830     1.0870     0.7780 ca         1 N4M       0.161600
     18 C11          6.1500    -0.0940     1.3060 ca         1 N4M      -0.198500
     19 C12          4.8590    -0.4960     0.9830 ca         1 N4M      -0.090000
     20 C15          5.8640     1.8350    -0.0860 ca         1 N4M      -0.198500
     21 C14          4.5830     1.4230    -0.3910 ca         1 N4M      -0.090000
     22 C13          4.0450     0.2440     0.1330 ca         1 N4M      -0.130300
     23 C16          2.6290    -0.1600    -0.1660 c3         1 N4M      -0.066100
     24 C17          1.6310     0.5440     0.7610 c3         1 N4M       0.118100
     25 O16          1.8790     0.2420     2.1150 oh         1 N4M      -0.588800
     26 C18          0.1880     0.1630     0.4450 c3         1 N4M       0.118100
     27 O15         -0.0450    -1.2230     0.5650 oh         1 N4M      -0.585800
     28 C19         -0.8400     0.9710     1.2690 c3         1 N4M       0.128100
     29 O14         -1.0770     0.4140     2.5380 oh         1 N4M      -0.581800
     30 C20         -2.1230     1.1290     0.4680 c3         1 N4M       0.121400
     31 O2          -3.0510     1.8720     1.2300 os         1 N4M      -0.432600
     32 C21         -4.0770     2.4650     0.5210 c5         1 N4M       0.304900
     33 C22         -4.8910     3.3520     1.4670 c5         1 N4M       0.082100
     34 O13         -4.9820     2.8090     2.7560 oh         1 N4M      -0.557800
     35 C23         -6.2640     3.2720     0.8090 c5         1 N4M       0.114100
     36 O12         -7.3510     3.5890     1.6240 oh         1 N4M      -0.515800
     37 O3          -4.9740     1.5120    -0.0040 os         1 N4M      -0.402600
     38 C24         -6.3150     1.8090     0.3680 c5         1 N4M       0.143100
     39 C25         -7.2470     1.5920    -0.7980 c3         1 N4M       0.220400
     40 O4          -7.1790     0.2460    -1.2180 os         1 N4M      -0.553200
     41 P           -8.3700    -0.3370    -2.1910 p5         1 N4M       1.413800
     42 O5          -8.7990     0.7230    -3.1590 o          1 N4M      -0.855000
     43 O6          -7.8630    -1.6670    -2.6570 o          1 N4M      -0.855000
     44 O7          -9.6240    -0.5140    -1.1650 os         1 N4M      -0.575200
     45 C26         -9.6140    -1.5340    -0.1760 c3         1 N4M       0.068100
     46 C30         -9.0720    -1.0370     1.1790 c          1 N4M       0.916600
     47 O10         -9.1970     0.1680     1.4540 o          1 N4M      -0.874800
     48 O11         -8.6010    -1.9310     1.9170 o          1 N4M      -0.874800
     49 C27        -11.0420    -2.0420     0.0030 c3         1 N4M      -0.041400
     50 C28        -11.6430    -2.6290    -1.2640 c3         1 N4M      -0.191400
     51 C29        -13.0550    -3.2220    -1.1150 c          1 N4M       0.919600
     52 O9         -13.6800    -3.4270    -2.1780 o          1 N4M      -0.892300
     53 O8         -13.4640    -3.4740     0.0360 o          1 N4M      -0.892300
     54 H1           9.5130    -3.2670    -3.5160 hn         1 N4M       0.438300
     55 H2           8.8970    -2.1400    -4.6320 hn         1 N4M       0.438300
     56 H4          11.3250    -0.4300     2.2500 h1         1 N4M       0.060700
     57 H5          12.9520     1.0630     0.1330 hc         1 N4M       0.044033
     58 H6          13.0320     1.3360     1.8770 hc         1 N4M       0.044033
     59 H7          13.5500    -0.2080     1.1980 hc         1 N4M       0.044033
     60 H8          10.6690     2.0020     1.7910 h1         1 N4M       0.072700
     61 H9           8.8140    -0.3420     1.2960 h1         1 N4M       0.034700
     62 H10          9.0940     1.7080     3.5460 hc         1 N4M       0.039700
     63 H11          7.9250     0.3890     3.5270 hc         1 N4M       0.039700
     64 H12          9.6390     0.0280     3.6020 hc         1 N4M       0.039700
     65 H13          8.3390     2.1380     0.3410 hn         1 N4M       0.441800
     66 H14          6.7320    -0.7170     1.9720 ha         1 N4M       0.127000
     67 H15          4.4900    -1.4270     1.4020 ha         1 N4M       0.130500
     68 H16          6.2490     2.7510    -0.5220 ha         1 N4M       0.127000
     69 H17          3.9850     2.0270    -1.0640 ha         1 N4M       0.130500
     70 H18          2.3790     0.0950    -1.2000 hc         1 N4M       0.062200
     71 H19          2.5180    -1.2430    -0.0680 hc         1 N4M       0.062200
     72 H20          1.7160     1.6270     0.5790 h1         1 N4M       0.032700
     73 H21          2.8080     0.4220     2.2980 ho         1 N4M       0.401000
     74 H22          0.0380     0.4080    -0.6130 h1         1 N4M       0.073700
     75 H23          0.3150    -1.5120     1.4100 ho         1 N4M       0.413000
     76 H24         -0.4330     1.9720     1.4500 h1         1 N4M       0.062700
     77 H25         -1.5500    -0.4170     2.4250 ho         1 N4M       0.418000
     78 H26         -1.8910     1.6480    -0.4710 h1         1 N4M       0.046700
     79 H27         -2.5340     0.1460     0.2030 h1         1 N4M       0.046700
     80 H28         -3.6660     3.0530    -0.3140 h2         1 N4M       0.011700
     81 H29         -4.4900     4.3750     1.4850 h1         1 N4M       0.005700
     82 H30         -4.0960     2.5550     3.0370 ho         1 N4M       0.405000
     83 H31         -6.2370     3.9080    -0.0890 h1         1 N4M       0.017700
     84 H32         -7.3900     4.5450     1.7210 ho         1 N4M       0.367000
     85 H33         -6.6330     1.1750     1.2040 h1         1 N4M       0.139700
     86 H34         -8.2540     1.8620    -0.4660 h1         1 N4M       0.026700
     87 H35         -6.9710     2.2640    -1.6200 h1         1 N4M       0.026700
     88 H37         -8.9980    -2.3740    -0.5150 h1         1 N4M       0.026700
     89 H39        -11.0310    -2.7990     0.7900 hc         1 N4M       0.029700
     90 H40        -11.6690    -1.2230     0.3740 hc         1 N4M       0.029700
     91 H41        -11.6600    -1.8810    -2.0590 hc         1 N4M       0.023700
     92 H42        -10.9870    -3.4280    -1.6360 hc         1 N4M       0.023700
     93 H44         11.0160     2.3440    -0.3960 hn         1 N4M       0.392800
     94 H45         10.5250    -2.5520    -1.5910 hn         1 N4M       0.437800
     95 H3          11.2040    -1.9350     0.5180 hn         1 N4M       0.433800
@<TRIPOS>BOND
     1     1     2 1   
     2     1    13 1   
     3     1    93 1   
     4     2     3 2   
     5     2     8 1   
     6     3     4 1   
     7     3    10 1   
     8     4     5 1   
     9     4    94 1   
    10     5     6 1   
    11     5     7 2   
    12     6    54 1   
    13     6    55 1   
    14     7     8 1   
    15     8     9 2   
    16    10    11 1   
    17    10    95 1   
    18    11    12 1   
    19    11    13 1   
    20    11    56 1   
    21    12    57 1   
    22    12    58 1   
    23    12    59 1   
    24    13    14 1   
    25    13    60 1   
    26    14    15 1   
    27    14    16 1   
    28    14    61 1   
    29    15    62 1   
    30    15    63 1   
    31    15    64 1   
    32    16    17 1   
    33    16    65 1   
    34    17    18 ar  
    35    17    20 ar  
    36    18    19 ar  
    37    18    66 1   
    38    19    22 ar  
    39    19    67 1   
    40    20    21 ar  
    41    20    68 1   
    42    21    22 ar  
    43    21    69 1   
    44    22    23 1   
    45    23    24 1   
    46    23    70 1   
    47    23    71 1   
    48    24    25 1   
    49    24    26 1   
    50    24    72 1   
    51    25    73 1   
    52    26    27 1   
    53    26    28 1   
    54    26    74 1   
    55    27    75 1   
    56    28    29 1   
    57    28    30 1   
    58    28    76 1   
    59    29    77 1   
    60    30    31 1   
    61    30    78 1   
    62    30    79 1   
    63    31    32 1   
    64    32    33 1   
    65    32    37 1   
    66    32    80 1   
    67    33    34 1   
    68    33    35 1   
    69    33    81 1   
    70    34    82 1   
    71    35    36 1   
    72    35    38 1   
    73    35    83 1   
    74    36    84 1   
    75    37    38 1   
    76    38    39 1   
    77    38    85 1   
    78    39    40 1   
    79    39    86 1   
    80    39    87 1   
    81    40    41 1   
    82    41    42 1   
    83    41    43 1   
    84    41    44 1   
    85    44    45 1   
    86    45    46 1   
    87    45    49 1   
    88    45    88 1   
    89    46    47 1   
    90    46    48 1   
    91    49    50 1   
    92    49    89 1   
    93    49    90 1   
    94    50    51 1   
    95    50    91 1   
    96    50    92 1   
    97    51    52 1   
    98    51    53 1   
@<TRIPOS>SUBSTRUCTURE
     1 N4M         1 TEMP              0 ****  ****    0 ROOT
