@<TRIPOS>MOLECULE
N4N
   31    33     1     0     0
SMALL
abcg2


@<TRIPOS>ATOM
      1 C02         -0.6310    51.7620    35.2770 c          1 N4N       0.714600
      2 C04          0.3130    51.2340    34.1960 ca         1 N4N      -0.114600
      3 C05          1.5970    50.8310    34.5270 ca         1 N4N      -0.131000
      4 C06          2.4900    50.3600    33.5610 ca         1 N4N       0.248000
      5 C07          2.0770    50.2880    32.2310 ca         1 N4N      -0.150000
      6 C08          0.7880    50.6890    31.9020 ca         1 N4N      -0.129000
      7 C09         -0.0910    51.1590    32.8640 ca         1 N4N      -0.098000
      8 C11          4.8630    49.6920    33.2890 cc         1 N4N       0.753300
      9 C13          6.2450    49.3940    31.6020 cd         1 N4N       0.264000
     10 C14          7.1180    49.1000    32.5990 cc         1 N4N      -0.247000
     11 C16          6.5730    49.3930    30.1710 ca         1 N4N       0.328000
     12 C17          5.6200    49.7450    29.2170 ca         1 N4N      -0.121000
     13 C18          5.9860    49.7440    27.8810 ca         1 N4N      -0.084000
     14 C19          7.2820    49.3910    27.5380 ca         1 N4N      -0.175000
     15 C20          8.1560    49.0510    28.5620 ca         1 N4N       0.331900
     16 N10          3.7530    49.9710    34.0120 nu         1 N4N      -0.914900
     17 N12          4.9760    49.7240    32.0010 nd         1 N4N      -0.737000
     18 N21          7.8180    49.0500    29.8410 nb         1 N4N      -0.677000
     19 O01         -1.7650    52.1070    34.8980 o          1 N4N      -0.717500
     20 O03         -0.1800    51.8020    36.4380 o          1 N4N      -0.717500
     21 S15          6.3330    49.2360    34.1250 ss         1 N4N      -0.151400
     22 H051         1.9150    50.8900    35.5620 ha         1 N4N       0.125000
     23 H071         2.7440    49.9290    31.4640 ha         1 N4N       0.120000
     24 H081         0.4730    50.6290    30.8670 ha         1 N4N       0.087000
     25 H091        -1.0890    51.4710    32.5870 ha         1 N4N       0.130000
     26 H141         8.1560    48.8210    32.5240 h4         1 N4N       0.166000
     27 H171         4.6180    50.0160    29.5190 ha         1 N4N       0.154000
     28 H181         5.2680    50.0160    27.1190 ha         1 N4N       0.115000
     29 H191         7.6120    49.3770    26.5080 ha         1 N4N       0.114000
     30 H201         9.1780    48.7660    28.3340 h4         1 N4N       0.009100
     31 H101         3.8640    49.9760    35.0140 hn         1 N4N       0.504000
@<TRIPOS>BOND
     1     1     2 1   
     2     1    19 1   
     3     1    20 1   
     4     2     3 ar  
     5     2     7 ar  
     6     3     4 ar  
     7     3    22 1   
     8     4     5 ar  
     9     4    16 1   
    10     5     6 ar  
    11     5    23 1   
    12     6     7 ar  
    13     6    24 1   
    14     7    25 1   
    15     8    16 1   
    16     8    17 2   
    17     8    21 1   
    18     9    10 2   
    19     9    11 1   
    20     9    17 1   
    21    10    21 1   
    22    10    26 1   
    23    11    12 ar  
    24    11    18 ar  
    25    12    13 ar  
    26    12    27 1   
    27    13    14 ar  
    28    13    28 1   
    29    14    15 ar  
    30    14    29 1   
    31    15    18 ar  
    32    15    30 1   
    33    16    31 1   
@<TRIPOS>SUBSTRUCTURE
     1 N4N         1 TEMP              0 ****  ****    0 ROOT
