@<TRIPOS>MOLECULE
N4N
   31    33     1     0     0
SMALL
No Charge or Current Charge


@<TRIPOS>ATOM
      1 C02         -0.3520    52.3880    35.0410 c          1 N4N       0.714600
      2 C04          0.4050    51.4420    34.1190 ca         1 N4N      -0.114600
      3 C05          1.6910    50.9580    34.4690 ca         1 N4N      -0.131000
      4 C06          2.3990    50.0900    33.6200 ca         1 N4N       0.248000
      5 C07          1.8120    49.6770    32.4120 ca         1 N4N      -0.150000
      6 C08          0.5390    50.1430    32.0470 ca         1 N4N      -0.129000
      7 C09         -0.1590    51.0220    32.8920 ca         1 N4N      -0.098000
      8 C11          4.8180    49.3870    33.3530 cc         1 N4N       0.753300
      9 C13          6.1990    49.3190    31.6160 cd         1 N4N       0.264000
     10 C14          7.0550    48.8920    32.6130 cc         1 N4N      -0.247000
     11 C16          6.5930    49.4680    30.1780 ca         1 N4N       0.328000
     12 C17          5.6570    49.9120    29.2150 ca         1 N4N      -0.121000
     13 C18          6.0470    50.0450    27.8720 ca         1 N4N      -0.084000
     14 C19          7.3700    49.7280    27.5330 ca         1 N4N      -0.175000
     15 C20          8.2480    49.2930    28.5390 ca         1 N4N       0.331900
     16 N10          3.6540    49.6270    34.0190 nu         1 N4N      -0.914900
     17 N12          4.9070    49.6090    32.0610 nd         1 N4N      -0.737000
     18 N21          7.8770    49.1630    29.8330 nb         1 N4N      -0.677000
     19 O01         -1.4560    52.7850    34.6950 o          1 N4N      -0.717500
     20 O03          0.1690    52.7200    36.0970 o          1 N4N      -0.717500
     21 S15          6.2610    48.8450    34.1610 ss         1 N4N      -0.151400
     22 H051         2.1460    51.2660    35.4060 ha         1 N4N       0.125000
     23 H071         2.3340    48.9850    31.7570 ha         1 N4N       0.120000
     24 H081         0.0910    49.8210    31.1090 ha         1 N4N       0.087000
     25 H091        -1.1440    51.3720    32.5910 ha         1 N4N       0.130000
     26 H141         8.0970    48.6100    32.5290 h4         1 N4N       0.166000
     27 H171         4.6390    50.1500    29.5090 ha         1 N4N       0.154000
     28 H181         5.3410    50.3850    27.1160 ha         1 N4N       0.115000
     29 H191         7.7180    49.8150    26.5070 ha         1 N4N       0.114000
     30 H201         9.2810    49.0400    28.3030 h4         1 N4N       0.009100
     31 H101         3.8200    49.6550    35.0200 hn         1 N4N       0.504000
@<TRIPOS>BOND
     1     1     2 1   
     2     1    19 1   
     3     1    20 1   
     4     2     3 ar  
     5     2     7 ar  
     6     3     4 ar  
     7     3    22 1   
     8     4     5 ar  
     9     4    16 1   
    10     5     6 ar  
    11     5    23 1   
    12     6     7 ar  
    13     6    24 1   
    14     7    25 1   
    15     8    16 1   
    16     8    17 2   
    17     8    21 1   
    18     9    10 2   
    19     9    11 1   
    20     9    17 1   
    21    10    21 1   
    22    10    26 1   
    23    11    12 ar  
    24    11    18 ar  
    25    12    13 ar  
    26    12    27 1   
    27    13    14 ar  
    28    13    28 1   
    29    14    15 ar  
    30    14    29 1   
    31    15    18 ar  
    32    15    30 1   
    33    16    31 1   
@<TRIPOS>SUBSTRUCTURE
     1 N4N         1 TEMP              0 ****  ****    0 ROOT
