@<TRIPOS>MOLECULE
N4P
   40    39     1     0     0
SMALL
abcg2


@<TRIPOS>ATOM
      1 C4           2.0130    -0.0920    -0.2100 c3         1 N4P      -0.078400
      2 C5           0.8600     0.4540     0.6220 c3         1 N4P       0.172800
      3 N1           5.7930     0.4240    -0.0700 n8         1 N4P      -0.996200
      4 C3           3.3590     0.4510     0.2540 c3         1 N4P      -0.080400
      5 C2           4.5240    -0.1090    -0.5470 c3         1 N4P       0.149800
      6 N6          -0.4430    -0.0360     0.2000 n3         1 N4P      -0.725600
      7 C7          -0.6830    -1.4040     0.6350 c3         1 N4P       0.171300
      8 C8          -1.6760    -2.1410    -0.2530 c3         1 N4P      -0.080900
      9 C9          -1.9720    -3.5410     0.2620 c3         1 N4P       0.147800
     10 N10         -2.9140    -4.2290    -0.6090 n8         1 N4P      -0.992700
     11 C11         -1.5130     0.8530     0.6280 c3         1 N4P       0.171300
     12 C12         -1.6830     2.0670    -0.2740 c3         1 N4P      -0.080900
     13 C13         -2.7650     3.0060     0.2380 c3         1 N4P       0.147800
     14 N14         -2.9430     4.1380    -0.6610 n8         1 N4P      -0.992700
     15 H1           2.0380    -1.1850    -0.1630 hc         1 N4P       0.045700
     16 H2           1.8450     0.1670    -1.2590 hc         1 N4P       0.045700
     17 H3           1.0400     0.2470     1.6920 h1         1 N4P       0.029200
     18 H4           0.8680     1.5420     0.5230 h1         1 N4P       0.029200
     19 H5           6.5500     0.0150    -0.6020 hn         1 N4P       0.391000
     20 H6           5.8310     1.4170    -0.2680 hn         1 N4P       0.391000
     21 H8           3.3580     1.5440     0.1750 hc         1 N4P       0.044200
     22 H9           3.5090     0.2170     1.3120 hc         1 N4P       0.044200
     23 H10          4.3450     0.0790    -1.6160 h1         1 N4P       0.026700
     24 H11          4.5450    -1.1960    -0.4300 h1         1 N4P       0.026700
     25 H13          0.2600    -1.9540     0.6170 h1         1 N4P       0.028450
     26 H14         -1.0240    -1.4370     1.6850 h1         1 N4P       0.028450
     27 H15         -2.6160    -1.5870    -0.3290 hc         1 N4P       0.054200
     28 H16         -1.2640    -2.1980    -1.2660 hc         1 N4P       0.054200
     29 H17         -1.0240    -4.0820     0.3950 h1         1 N4P       0.024450
     30 H18         -2.4200    -3.4660     1.2570 h1         1 N4P       0.024450
     31 H19         -2.4670    -4.4160    -1.4990 hn         1 N4P       0.390750
     32 H20         -3.1290    -5.1390    -0.2200 hn         1 N4P       0.390750
     33 H22         -2.4520     0.2950     0.6240 h1         1 N4P       0.028450
     34 H23         -1.3660     1.1800     1.6720 h1         1 N4P       0.028450
     35 H24         -0.7410     2.6210    -0.3480 hc         1 N4P       0.054200
     36 H25         -1.9330     1.7330    -1.2840 hc         1 N4P       0.054200
     37 H26         -3.7130     2.4620     0.2970 h1         1 N4P       0.024450
     38 H27         -2.5190     3.3020     1.2680 h1         1 N4P       0.024450
     39 H28         -3.6600     4.7490    -0.2910 hn         1 N4P       0.390750
     40 H29         -2.0950     4.6920    -0.6640 hn         1 N4P       0.390750
@<TRIPOS>BOND
     1     1     2 1   
     2     1     4 1   
     3     1    15 1   
     4     1    16 1   
     5     2     6 1   
     6     2    17 1   
     7     2    18 1   
     8     3     5 1   
     9     3    19 1   
    10     3    20 1   
    11     4     5 1   
    12     4    21 1   
    13     4    22 1   
    14     5    23 1   
    15     5    24 1   
    16     6     7 1   
    17     6    11 1   
    18     7     8 1   
    19     7    25 1   
    20     7    26 1   
    21     8     9 1   
    22     8    27 1   
    23     8    28 1   
    24     9    10 1   
    25     9    29 1   
    26     9    30 1   
    27    10    31 1   
    28    10    32 1   
    29    11    12 1   
    30    11    33 1   
    31    11    34 1   
    32    12    13 1   
    33    12    35 1   
    34    12    36 1   
    35    13    14 1   
    36    13    37 1   
    37    13    38 1   
    38    14    39 1   
    39    14    40 1   
@<TRIPOS>SUBSTRUCTURE
     1 N4P         1 TEMP              0 ****  ****    0 ROOT
