@<TRIPOS>MOLECULE
N4P
   40    39     1     0     0
SMALL
No Charge or Current Charge


@<TRIPOS>ATOM
      1 C4           2.1100    -0.2250    -0.0860 c3         1 N4P      -0.078400
      2 C5           0.8660     0.5210     0.4580 c3         1 N4P       0.172800
      3 N1           5.9080     0.5440    -0.0950 n8         1 N4P      -0.996200
      4 C3           3.4280     0.5390     0.1740 c3         1 N4P      -0.080400
      5 C2           4.6680    -0.2070    -0.3610 c3         1 N4P       0.149800
      6 N6          -0.4550    -0.0390     0.0440 n3         1 N4P      -0.725600
      7 C7          -0.6430    -1.4540     0.4840 c3         1 N4P       0.171300
      8 C8          -1.8940    -2.1720    -0.0770 c3         1 N4P      -0.080900
      9 C9          -1.8840    -3.6830     0.2240 c3         1 N4P       0.147800
     10 N10         -3.0870    -4.3530    -0.3050 n8         1 N4P      -0.992700
     11 C11         -1.5990     0.8410     0.4320 c3         1 N4P       0.171300
     12 C12         -1.5800     2.2700    -0.1610 c3         1 N4P      -0.080900
     13 C13         -2.9010     3.0230     0.0900 c3         1 N4P       0.147800
     14 N14         -2.8720     4.3830    -0.4800 n8         1 N4P      -0.992700
     15 H1           2.1870    -1.2130     0.3810 hc         1 N4P       0.045700
     16 H2           1.9910    -0.3800    -1.1650 hc         1 N4P       0.045700
     17 H3           0.9300     0.5570     1.5540 h1         1 N4P       0.029200
     18 H4           0.9550     1.5540     0.1000 h1         1 N4P       0.029200
     19 H5           6.6990     0.0450    -0.5220 hn         1 N4P       0.391000
     20 H6           5.8780     1.4310    -0.6110 hn         1 N4P       0.391000
     21 H8           3.3700     1.5280    -0.2970 hc         1 N4P       0.044200
     22 H9           3.5420     0.7010     1.2530 hc         1 N4P       0.044200
     23 H10          4.5710    -0.3560    -1.4460 h1         1 N4P       0.026700
     24 H11          4.7430    -1.1930     0.1200 h1         1 N4P       0.026700
     25 H13          0.2160    -2.0550     0.1620 h1         1 N4P       0.028450
     26 H14         -0.6730    -1.5040     1.5810 h1         1 N4P       0.028450
     27 H15         -2.8010    -1.7370     0.3580 hc         1 N4P       0.054200
     28 H16         -1.9390    -2.0170    -1.1620 hc         1 N4P       0.054200
     29 H17         -0.9960    -4.1460    -0.2290 h1         1 N4P       0.024450
     30 H18         -1.8440    -3.8430     1.3100 h1         1 N4P       0.024450
     31 H19         -3.0850    -4.2830    -1.3300 hn         1 N4P       0.390750
     32 H20         -3.0100    -5.3630    -0.1340 hn         1 N4P       0.390750
     33 H22         -2.5400     0.3890     0.0950 h1         1 N4P       0.028450
     34 H23         -1.6570     0.9170     1.5270 h1         1 N4P       0.028450
     35 H24         -0.7600     2.8470     0.2800 hc         1 N4P       0.054200
     36 H25         -1.3990     2.2070    -1.2410 hc         1 N4P       0.054200
     37 H26         -3.7340     2.4710    -0.3660 h1         1 N4P       0.024450
     38 H27         -3.0850     3.0990     1.1710 h1         1 N4P       0.024450
     39 H28         -3.7470     4.8650    -0.2410 hn         1 N4P       0.390750
     40 H29         -2.1540     4.9340     0.0050 hn         1 N4P       0.390750
@<TRIPOS>BOND
     1     1     2 1   
     2     1     4 1   
     3     1    15 1   
     4     1    16 1   
     5     2     6 1   
     6     2    17 1   
     7     2    18 1   
     8     3     5 1   
     9     3    19 1   
    10     3    20 1   
    11     4     5 1   
    12     4    21 1   
    13     4    22 1   
    14     5    23 1   
    15     5    24 1   
    16     6     7 1   
    17     6    11 1   
    18     7     8 1   
    19     7    25 1   
    20     7    26 1   
    21     8     9 1   
    22     8    27 1   
    23     8    28 1   
    24     9    10 1   
    25     9    29 1   
    26     9    30 1   
    27    10    31 1   
    28    10    32 1   
    29    11    12 1   
    30    11    33 1   
    31    11    34 1   
    32    12    13 1   
    33    12    35 1   
    34    12    36 1   
    35    13    14 1   
    36    13    37 1   
    37    13    38 1   
    38    14    39 1   
    39    14    40 1   
@<TRIPOS>SUBSTRUCTURE
     1 N4P         1 TEMP              0 ****  ****    0 ROOT
