@<TRIPOS>MOLECULE
N4Q
   47    50     1     0     0
SMALL
abcg2


@<TRIPOS>ATOM
      1 C12         21.1150    29.8650     4.4370 ca         1 N4Q      -0.178500
      2 C13         20.1790    30.0900     3.4240 ca         1 N4Q       0.146100
      3 C14         19.2760    29.0800     3.0990 ca         1 N4Q      -0.178500
      4 C01         23.2730    22.8930    12.3360 c3         1 N4Q       0.148900
      5 C03         21.2060    25.9170     6.4060 cc         1 N4Q      -0.279100
      6 C04         21.1470    17.4880     8.1610 c3         1 N4Q       0.148900
      7 C05         21.3450    23.7870     7.6590 cc         1 N4Q      -0.098000
      8 C06         20.7400    22.5870     7.8880 cd         1 N4Q      -0.068000
      9 C07         19.5340    22.2840     7.1900 cd         1 N4Q      -0.096000
     10 C08         18.9860    23.1690     6.3110 cc         1 N4Q      -0.077000
     11 C11         21.1430    28.6590     5.1050 ca         1 N4Q      -0.051000
     12 C15         19.3160    27.8720     3.7820 ca         1 N4Q      -0.051000
     13 C17         21.9540    22.0880     9.9980 ca         1 N4Q      -0.226500
     14 C18         22.5220    21.1720    10.8820 ca         1 N4Q       0.178100
     15 C20         21.8190    19.3540     9.4690 ca         1 N4Q       0.178100
     16 C21         21.2590    20.2610     8.5710 ca         1 N4Q      -0.226500
     17 C02         20.2690    26.3550     5.4970 cd         1 N4Q       0.140400
     18 C09         19.6230    24.4060     6.0890 cc         1 N4Q      -0.074000
     19 C10         20.2440    27.6340     4.7910 ca         1 N4Q      -0.060800
     20 C16         21.3300    21.6260     8.8410 ca         1 N4Q       0.044000
     21 C19         22.4510    19.8080    10.6210 ca         1 N4Q      -0.183000
     22 C25         19.3030    31.5690     1.7890 c3         1 N4Q       0.148900
     23 N01         19.3030    25.4170     5.3080 nd         1 N4Q      -0.293600
     24 N04         20.7900    24.6710     6.7860 na         1 N4Q       0.136100
     25 O03         20.2230    31.2950     2.8280 os         1 N4Q      -0.342100
     26 H1          21.8170    30.6470     4.6970 ha         1 N4Q       0.121000
     27 H2          18.5370    29.2120     2.3210 ha         1 N4Q       0.121000
     28 H3          23.8140    22.9440    13.2770 h1         1 N4Q       0.042033
     29 H4          23.8390    23.4360    11.5740 h1         1 N4Q       0.042033
     30 H5          22.3000    23.3750    12.4630 h1         1 N4Q       0.042033
     31 H6          22.1040    26.3610     6.8010 h4         1 N4Q       0.231000
     32 H7          21.2330    16.4070     8.2360 h1         1 N4Q       0.042033
     33 H8          20.0880    17.7560     8.1380 h1         1 N4Q       0.042033
     34 H9          21.6150    17.8110     7.2280 h1         1 N4Q       0.042033
     35 H10         22.2720    24.0900     8.1230 h4         1 N4Q       0.146000
     36 H11         19.0360    21.3430     7.3780 ha         1 N4Q       0.126000
     37 H12         18.0660    22.9520     5.7870 ha         1 N4Q       0.143000
     38 H13         21.8760    28.5210     5.8910 ha         1 N4Q       0.121000
     39 H14         18.6080    27.0980     3.5170 ha         1 N4Q       0.121000
     40 H15         21.9660    23.1480    10.2100 ha         1 N4Q       0.121000
     41 H16         20.7970    19.9240     7.6530 ha         1 N4Q       0.121000
     42 H17         22.8850    19.1000    11.3170 ha         1 N4Q       0.144000
     43 H18         19.5050    32.5850     1.4570 h1         1 N4Q       0.041033
     44 H19         19.4300    30.8910     0.9410 h1         1 N4Q       0.041033
     45 H20         18.2670    31.5120     2.1340 h1         1 N4Q       0.041033
     46 O01         23.1460    21.5200    12.0210 os         1 N4Q      -0.338600
     47 O02         21.8020    18.0200     9.2960 os         1 N4Q      -0.338600
@<TRIPOS>BOND
     1     1     2 ar  
     2     1    11 ar  
     3     1    26 1   
     4     2     3 ar  
     5     2    25 1   
     6     3    12 ar  
     7     3    27 1   
     8     4    28 1   
     9     4    29 1   
    10     4    30 1   
    11     4    46 1   
    12     5    17 2   
    13     5    24 1   
    14     5    31 1   
    15     6    32 1   
    16     6    33 1   
    17     6    34 1   
    18     6    47 1   
    19     7     8 2   
    20     7    24 1   
    21     7    35 1   
    22     8     9 1   
    23     8    20 1   
    24     9    10 2   
    25     9    36 1   
    26    10    18 1   
    27    10    37 1   
    28    11    19 ar  
    29    11    38 1   
    30    12    19 ar  
    31    12    39 1   
    32    13    14 ar  
    33    13    20 ar  
    34    13    40 1   
    35    14    21 ar  
    36    14    46 1   
    37    15    16 ar  
    38    15    21 ar  
    39    15    47 1   
    40    16    20 ar  
    41    16    41 1   
    42    17    19 1   
    43    17    23 1   
    44    18    23 2   
    45    18    24 1   
    46    21    42 1   
    47    22    25 1   
    48    22    43 1   
    49    22    44 1   
    50    22    45 1   
@<TRIPOS>SUBSTRUCTURE
     1 N4Q         1 TEMP              0 ****  ****    0 ROOT
