@<TRIPOS>MOLECULE
N4Q
   47    50     1     0     0
SMALL
No Charge or Current Charge


@<TRIPOS>ATOM
      1 C12         21.0490    29.9270     4.5690 ca         1 N4Q      -0.178500
      2 C13         20.1460    30.1800     3.5260 ca         1 N4Q       0.146100
      3 C14         19.2750    29.1550     3.1030 ca         1 N4Q      -0.178500
      4 C01         23.4930    23.0480    12.2440 c3         1 N4Q       0.148900
      5 C03         21.0990    25.9280     6.4630 cc         1 N4Q      -0.279100
      6 C04         20.9020    17.2910     8.4600 c3         1 N4Q       0.148900
      7 C05         21.3020    23.8290     7.6580 cc         1 N4Q      -0.098000
      8 C06         20.8200    22.5100     7.7320 cd         1 N4Q      -0.068000
      9 C07         19.7340    22.0800     6.8550 cd         1 N4Q      -0.096000
     10 C08         19.2070    22.9400     5.9200 cc         1 N4Q      -0.077000
     11 C11         21.0890    28.6670     5.1910 ca         1 N4Q      -0.051000
     12 C15         19.3140    27.8940     3.7250 ca         1 N4Q      -0.051000
     13 C17         22.0590    22.0800     9.8980 ca         1 N4Q      -0.226500
     14 C18         22.5720    21.2060    10.8780 ca         1 N4Q       0.178100
     15 C20         21.7170    19.3080     9.6330 ca         1 N4Q       0.178100
     16 C21         21.2030    20.1840     8.6530 ca         1 N4Q      -0.226500
     17 C02         20.2620    26.3070     5.4290 cd         1 N4Q       0.140400
     18 C09         19.7340    24.2500     5.8390 cc         1 N4Q      -0.074000
     19 C10         20.2210    27.6330     4.7760 ca         1 N4Q      -0.060800
     20 C16         21.3620    21.5850     8.7700 ca         1 N4Q       0.044000
     21 C19         22.3960    19.8260    10.7380 ca         1 N4Q      -0.183000
     22 C25         19.2670    31.7950     1.8800 c3         1 N4Q       0.148900
     23 N01         19.4200    25.2600     5.0510 nd         1 N4Q      -0.293600
     24 N04         20.7270    24.6350     6.6750 na         1 N4Q       0.136100
     25 O03         20.1540    31.4360     2.9550 os         1 N4Q      -0.342100
     26 H1          21.7230    30.7140     4.8980 ha         1 N4Q       0.121000
     27 H2          18.5630    29.3160     2.2990 ha         1 N4Q       0.121000
     28 H3          24.0490    23.1760    13.1810 h1         1 N4Q       0.042033
     29 H4          24.0870    23.4910    11.4340 h1         1 N4Q       0.042033
     30 H5          22.5490    23.6000    12.3320 h1         1 N4Q       0.042033
     31 H6          21.8710    26.4420     7.0200 h4         1 N4Q       0.231000
     32 H7          20.9100    16.2030     8.5980 h1         1 N4Q       0.042033
     33 H8          19.8550    17.6190     8.4070 h1         1 N4Q       0.042033
     34 H9          21.3910    17.5160     7.5040 h1         1 N4Q       0.042033
     35 H10         22.0910    24.2700     8.2490 h4         1 N4Q       0.146000
     36 H11         19.3030    21.0890     6.9290 ha         1 N4Q       0.126000
     37 H12         18.4010    22.6390     5.2580 ha         1 N4Q       0.143000
     38 H13         21.8000    28.5030     5.9960 ha         1 N4Q       0.121000
     39 H14         18.6320    27.1190     3.3820 ha         1 N4Q       0.121000
     40 H15         22.1750    23.1480    10.0310 ha         1 N4Q       0.121000
     41 H16         20.7100    19.7710     7.7830 ha         1 N4Q       0.121000
     42 H17         22.7910    19.1530    11.4920 ha         1 N4Q       0.144000
     43 H18         19.4390    32.8350     1.5770 h1         1 N4Q       0.041033
     44 H19         19.4360    31.1540     1.0050 h1         1 N4Q       0.041033
     45 H20         18.2190    31.7000     2.1900 h1         1 N4Q       0.041033
     46 O01         23.2490    21.6520    11.9960 os         1 N4Q      -0.338600
     47 O02         21.5850    17.9370     9.5490 os         1 N4Q      -0.338600
@<TRIPOS>BOND
     1     1     2 ar  
     2     1    11 ar  
     3     1    26 1   
     4     2     3 ar  
     5     2    25 1   
     6     3    12 ar  
     7     3    27 1   
     8     4    28 1   
     9     4    29 1   
    10     4    30 1   
    11     4    46 1   
    12     5    17 2   
    13     5    24 1   
    14     5    31 1   
    15     6    32 1   
    16     6    33 1   
    17     6    34 1   
    18     6    47 1   
    19     7     8 2   
    20     7    24 1   
    21     7    35 1   
    22     8     9 1   
    23     8    20 1   
    24     9    10 2   
    25     9    36 1   
    26    10    18 1   
    27    10    37 1   
    28    11    19 ar  
    29    11    38 1   
    30    12    19 ar  
    31    12    39 1   
    32    13    14 ar  
    33    13    20 ar  
    34    13    40 1   
    35    14    21 ar  
    36    14    46 1   
    37    15    16 ar  
    38    15    21 ar  
    39    15    47 1   
    40    16    20 ar  
    41    16    41 1   
    42    17    19 1   
    43    17    23 1   
    44    18    23 2   
    45    18    24 1   
    46    21    42 1   
    47    22    25 1   
    48    22    43 1   
    49    22    44 1   
    50    22    45 1   
@<TRIPOS>SUBSTRUCTURE
     1 N4Q         1 TEMP              0 ****  ****    0 ROOT
