@<TRIPOS>MOLECULE
N4R
   48    49     1     0     0
SMALL
No Charge or Current Charge


@<TRIPOS>ATOM
      1 O2           1.3060    -1.1590    -1.8440 o          1 N4R      -0.628100
      2 C12          1.6360    -0.3820    -0.9570 c          1 N4R       0.665100
      3 N2           2.6730    -0.6350    -0.0670 ns         1 N4R      -0.166000
      4 C13          3.5380    -1.7480     0.1130 ca         1 N4R      -0.011000
      5 C18          4.6070    -1.6010     1.0170 ca         1 N4R      -0.142500
      6 C17          5.5020    -2.6590     1.2510 ca         1 N4R      -0.086500
      7 C16          5.3320    -3.8810     0.5820 ca         1 N4R      -0.134000
      8 C15          4.2650    -4.0440    -0.3170 ca         1 N4R      -0.086500
      9 C14          3.3700    -2.9850    -0.5510 ca         1 N4R      -0.142500
     10 N            0.9820     0.8640    -0.7930 n          1 N4R      -0.428800
     11 C3           1.2970     1.7920     0.3220 c3         1 N4R       0.095000
     12 C2           2.3820     2.8220    -0.0510 c3         1 N4R      -0.104400
     13 C1           2.7090     3.7930     1.1030 c3         1 N4R      -0.075400
     14 C            3.7950     4.8220     0.7340 c3         1 N4R      -0.089100
     15 C4          -0.1230     1.2610    -1.6980 c3         1 N4R       0.151300
     16 C5          -1.5040     0.9910    -1.1120 ca         1 N4R      -0.086300
     17 C10         -2.2540     2.0360    -0.5450 ca         1 N4R      -0.106000
     18 C9          -3.5250     1.7860     0.0000 ca         1 N4R      -0.074000
     19 C8          -4.0760     0.4840    -0.0110 ca         1 N4R      -0.154600
     20 C7          -3.3120    -0.5640    -0.5830 ca         1 N4R      -0.074000
     21 C6          -2.0410    -0.3080    -1.1270 ca         1 N4R      -0.106000
     22 C11         -5.4520     0.2510     0.5870 c          1 N4R       0.607700
     23 O           -6.0780     1.1470     1.1420 o          1 N4R      -0.561100
     24 N1          -5.9670    -1.0390     0.4880 ns         1 N4R      -0.374400
     25 O1          -7.3560    -1.3170     0.7980 oh         1 N4R      -0.434100
     26 H2           2.8490     0.1210     0.5800 hn         1 N4R       0.151000
     27 H18          4.7500    -0.6580     1.5410 ha         1 N4R       0.121000
     28 H14          2.5510    -3.1490    -1.2430 ha         1 N4R       0.121000
     29 H17          6.3260    -2.5310     1.9500 ha         1 N4R       0.112500
     30 H16          6.0230    -4.7020     0.7620 ha         1 N4R       0.115000
     31 H15          4.1300    -4.9930    -0.8320 ha         1 N4R       0.112500
     32 H31C         0.3830     2.3340     0.5970 h1         1 N4R       0.055700
     33 H32C         1.6010     1.2310     1.2150 h1         1 N4R       0.055700
     34 H41C        -0.0270     2.3320    -1.9180 h1         1 N4R       0.068200
     35 H42C        -0.0310     0.7410    -2.6600 h1         1 N4R       0.068200
     36 H21C         3.2950     2.2920    -0.3480 hc         1 N4R       0.044700
     37 H22C         2.0470     3.3960    -0.9240 hc         1 N4R       0.044700
     38 H11C         1.7980     4.3270     1.4000 hc         1 N4R       0.040200
     39 H12C         3.0440     3.2200     1.9770 hc         1 N4R       0.040200
     40 HC1          3.9930     5.4890     1.5820 hc         1 N4R       0.035033
     41 HC2          4.7320     4.3190     0.4660 hc         1 N4R       0.035033
     42 HC3          3.4750     5.4360    -0.1170 hc         1 N4R       0.035033
     43 H10         -1.8540     3.0480    -0.5230 ha         1 N4R       0.126000
     44 H6          -1.4700    -1.1260    -1.5590 ha         1 N4R       0.126000
     45 H9          -4.0830     2.6140     0.4320 ha         1 N4R       0.126000
     46 H7          -3.6820    -1.5850    -0.6110 ha         1 N4R       0.126000
     47 H1          -5.5010    -1.7160    -0.1110 hn         1 N4R       0.332500
     48 HA          -7.3080    -2.0890     1.4110 ho         1 N4R       0.450000
@<TRIPOS>BOND
     1     1     2 2   
     2     2     3 1   
     3     2    10 1   
     4     3     4 1   
     5     3    26 1   
     6     4     5 ar  
     7     4     9 ar  
     8     5     6 ar  
     9     5    27 1   
    10     6     7 ar  
    11     6    29 1   
    12     7     8 ar  
    13     7    30 1   
    14     8     9 ar  
    15     8    31 1   
    16     9    28 1   
    17    10    11 1   
    18    10    15 1   
    19    11    12 1   
    20    11    32 1   
    21    11    33 1   
    22    12    13 1   
    23    12    36 1   
    24    12    37 1   
    25    13    14 1   
    26    13    38 1   
    27    13    39 1   
    28    14    40 1   
    29    14    41 1   
    30    14    42 1   
    31    15    16 1   
    32    15    34 1   
    33    15    35 1   
    34    16    17 ar  
    35    16    21 ar  
    36    17    18 ar  
    37    17    43 1   
    38    18    19 ar  
    39    18    45 1   
    40    19    20 ar  
    41    19    22 1   
    42    20    21 ar  
    43    20    46 1   
    44    21    44 1   
    45    22    23 2   
    46    22    24 1   
    47    24    25 1   
    48    24    47 1   
    49    25    48 1   
@<TRIPOS>SUBSTRUCTURE
     1 N4R         1 TEMP              0 ****  ****    0 ROOT
