@<TRIPOS>MOLECULE
N4R
   48    49     1     0     0
SMALL
abcg2


@<TRIPOS>ATOM
      1 O2           1.4550    -1.2460    -1.6980 o          1 N4R      -0.628100
      2 C12          1.7600    -0.4380    -0.8310 c          1 N4R       0.665100
      3 N2           2.8240    -0.6390     0.0150 ns         1 N4R      -0.166000
      4 C13          3.6340    -1.7790     0.0510 ca         1 N4R      -0.011000
      5 C18          4.9750    -1.6100     0.4020 ca         1 N4R      -0.142500
      6 C17          5.8180    -2.7040     0.5170 ca         1 N4R      -0.086500
      7 C16          5.3430    -3.9860     0.2730 ca         1 N4R      -0.134000
      8 C15          4.0100    -4.1540    -0.0750 ca         1 N4R      -0.086500
      9 C14          3.1530    -3.0680    -0.1820 ca         1 N4R      -0.142500
     10 N            1.0680     0.7170    -0.6280 n          1 N4R      -0.428800
     11 C3           1.2870     1.6320     0.4780 c3         1 N4R       0.095000
     12 C2           2.2400     2.7770     0.1450 c3         1 N4R      -0.104400
     13 C1           2.3380     3.7910     1.2760 c3         1 N4R      -0.075400
     14 C            3.2730     4.9470     0.9450 c3         1 N4R      -0.089100
     15 C4           0.0450     1.1100    -1.5780 c3         1 N4R       0.151300
     16 C5          -1.3510     0.9070    -1.0460 ca         1 N4R      -0.086300
     17 C10         -2.1990     1.9910    -0.8510 ca         1 N4R      -0.106000
     18 C9          -3.4820     1.8120    -0.3550 ca         1 N4R      -0.074000
     19 C8          -3.9470     0.5360    -0.0600 ca         1 N4R      -0.154600
     20 C7          -3.0960    -0.5550    -0.2440 ca         1 N4R      -0.074000
     21 C6          -1.8130    -0.3690    -0.7300 ca         1 N4R      -0.106000
     22 C11         -5.3340     0.4000     0.4720 c          1 N4R       0.607700
     23 O           -5.8860     1.2900     1.0930 o          1 N4R      -0.561100
     24 N1          -5.9070    -0.8000     0.2230 ns         1 N4R      -0.374400
     25 O1          -7.2260    -0.9690     0.5260 oh         1 N4R      -0.434100
     26 H2           3.2030     0.1570     0.5010 hn         1 N4R       0.151000
     27 H18          5.3590    -0.6140     0.5880 ha         1 N4R       0.121000
     28 H14          2.1160    -3.2340    -0.4310 ha         1 N4R       0.121000
     29 H17          6.8530    -2.5480     0.7930 ha         1 N4R       0.112500
     30 H16          6.0010    -4.8400     0.3590 ha         1 N4R       0.115000
     31 H15          3.6210    -5.1470    -0.2590 ha         1 N4R       0.112500
     32 H31C         0.3120     2.0410     0.7610 h1         1 N4R       0.055700
     33 H32C         1.6270     1.0840     1.3590 h1         1 N4R       0.055700
     34 H41C         0.1880     2.1640    -1.8290 h1         1 N4R       0.068200
     35 H42C         0.1800     0.5470    -2.5000 h1         1 N4R       0.068200
     36 H21C         3.2360     2.3840    -0.0850 hc         1 N4R       0.044700
     37 H22C         1.8930     3.2770    -0.7640 hc         1 N4R       0.044700
     38 H11C         1.3410     4.1790     1.5020 hc         1 N4R       0.040200
     39 H12C         2.6840     3.2920     2.1860 hc         1 N4R       0.040200
     40 HC1          3.3240     5.6640     1.7640 hc         1 N4R       0.035033
     41 HC2          4.2860     4.5910     0.7520 hc         1 N4R       0.035033
     42 HC3          2.9360     5.4820     0.0550 hc         1 N4R       0.035033
     43 H10         -1.8540     2.9910    -1.0850 ha         1 N4R       0.126000
     44 H6          -1.1670    -1.2270    -0.8640 ha         1 N4R       0.126000
     45 H9          -4.1220     2.6710    -0.2050 ha         1 N4R       0.126000
     46 H7          -3.4180    -1.5570     0.0080 ha         1 N4R       0.126000
     47 H1          -5.5870    -1.3840    -0.5370 hn         1 N4R       0.332500
     48 HA          -7.2460    -1.4880     1.3400 ho         1 N4R       0.450000
@<TRIPOS>BOND
     1     1     2 2   
     2     2     3 1   
     3     2    10 1   
     4     3     4 1   
     5     3    26 1   
     6     4     5 ar  
     7     4     9 ar  
     8     5     6 ar  
     9     5    27 1   
    10     6     7 ar  
    11     6    29 1   
    12     7     8 ar  
    13     7    30 1   
    14     8     9 ar  
    15     8    31 1   
    16     9    28 1   
    17    10    11 1   
    18    10    15 1   
    19    11    12 1   
    20    11    32 1   
    21    11    33 1   
    22    12    13 1   
    23    12    36 1   
    24    12    37 1   
    25    13    14 1   
    26    13    38 1   
    27    13    39 1   
    28    14    40 1   
    29    14    41 1   
    30    14    42 1   
    31    15    16 1   
    32    15    34 1   
    33    15    35 1   
    34    16    17 ar  
    35    16    21 ar  
    36    17    18 ar  
    37    17    43 1   
    38    18    19 ar  
    39    18    45 1   
    40    19    20 ar  
    41    19    22 1   
    42    20    21 ar  
    43    20    46 1   
    44    21    44 1   
    45    22    23 2   
    46    22    24 1   
    47    24    25 1   
    48    24    47 1   
    49    25    48 1   
@<TRIPOS>SUBSTRUCTURE
     1 N4R         1 TEMP              0 ****  ****    0 ROOT
