@<TRIPOS>MOLECULE
N4T
   46    49     1     0     0
SMALL
abcg2


@<TRIPOS>ATOM
      1 C1          -5.0530    -0.3250     0.5740 ca         1 N4T       0.159000
      2 C2          -3.7150    -0.4640     0.8810 ca         1 N4T      -0.121000
      3 C3          -2.7440     0.0780     0.0360 ca         1 N4T      -0.048800
      4 C4          -3.1920     0.7500    -1.0950 ca         1 N4T       0.164000
      5 C5          -4.5310     0.8910    -1.4000 ca         1 N4T      -0.124000
      6 C6          -5.4840     0.3460    -0.5530 ca         1 N4T      -0.121000
      7 C10         -1.3230    -0.0860     0.3620 ce         1 N4T      -0.092400
      8 C11         -0.3100     1.0210     0.2630 c5         1 N4T       0.147200
      9 N12          0.8800     0.4010     0.8300 n          1 N4T      -0.417800
     10 C13          0.6860    -1.0050     1.1620 c5         1 N4T       0.190200
     11 C14         -0.7700    -1.1850     0.8680 c2         1 N4T      -0.193200
     12 C17          1.5500    -1.9360     0.3380 ca         1 N4T      -0.090300
     13 C19          1.6470    -1.7700    -1.0400 ca         1 N4T      -0.087000
     14 C20          2.4150    -2.6390    -1.8010 ca         1 N4T      -0.112500
     15 C21          3.0860    -3.6930    -1.1920 ca         1 N4T      -0.103000
     16 C22          2.9870    -3.8680     0.1810 ca         1 N4T      -0.112500
     17 C23          2.2250    -2.9890     0.9410 ca         1 N4T      -0.087000
     18 C8           2.0450     1.0140     1.1130 c          1 N4T       0.571100
     19 C7           2.2300     2.4500     0.6140 c3         1 N4T       0.127500
     20 C35          2.6760     2.3540    -0.8380 cx         1 N4T      -0.131700
     21 F40         -2.2900     1.2660    -1.9460 f          1 N4T      -0.175000
     22 F41         -5.9630    -0.8490     1.4090 f          1 N4T      -0.172000
     23 O2           2.9470     0.4300     1.6950 o          1 N4T      -0.600100
     24 C15          3.3690     3.4960    -1.5070 cx         1 N4T      -0.116900
     25 N1           3.1590     3.2080     1.4190 n8         1 N4T      -0.989200
     26 C12          4.1260     2.2390    -1.1910 cx         1 N4T      -0.116900
     27 H2          -3.4170    -0.9740     1.7880 ha         1 N4T       0.139000
     28 H5          -4.8290     1.4170    -2.2970 ha         1 N4T       0.139000
     29 H6          -6.5380     0.4470    -0.7720 ha         1 N4T       0.139000
     30 H111        -0.6310     1.8950     0.8370 h1         1 N4T       0.061700
     31 H112        -0.1490     1.3490    -0.7670 h1         1 N4T       0.061700
     32 H13          0.8910    -1.1840     2.2240 h1         1 N4T       0.082700
     33 H14         -1.2710    -2.1270     1.0440 ha         1 N4T       0.204000
     34 H19          1.1250    -0.9540    -1.5280 ha         1 N4T       0.113000
     35 H20          2.4880    -2.4960    -2.8710 ha         1 N4T       0.112500
     36 H21          3.6840    -4.3720    -1.7860 ha         1 N4T       0.112000
     37 H22          3.5080    -4.6840     0.6650 ha         1 N4T       0.112500
     38 H23          2.1580    -3.1230     2.0140 ha         1 N4T       0.113000
     39 H7           1.2760     2.9840     0.6340 h1         1 N4T       0.065700
     40 H35          2.0020     1.7840    -1.4700 hc         1 N4T       0.075700
     41 H151         3.1220     3.7030    -2.5410 hc         1 N4T       0.075450
     42 H152         3.5850     4.3700    -0.9070 hc         1 N4T       0.075450
     43 HN11         2.7170     3.4640     2.2920 hn         1 N4T       0.410000
     44 HN12         3.9500     2.6280     1.6690 hn         1 N4T       0.410000
     45 H121         4.8590     2.2810    -0.3960 hc         1 N4T       0.075450
     46 H122         4.3950     1.5770    -2.0040 hc         1 N4T       0.075450
@<TRIPOS>BOND
     1     1     2 ar  
     2     1     6 ar  
     3     1    22 1   
     4     2     3 ar  
     5     2    27 1   
     6     3     4 ar  
     7     3     7 1   
     8     4     5 ar  
     9     4    21 1   
    10     5     6 ar  
    11     5    28 1   
    12     6    29 1   
    13     7     8 1   
    14     7    11 2   
    15     8     9 1   
    16     8    30 1   
    17     8    31 1   
    18     9    10 1   
    19     9    18 1   
    20    10    11 1   
    21    10    12 1   
    22    10    32 1   
    23    11    33 1   
    24    12    13 ar  
    25    12    17 ar  
    26    13    14 ar  
    27    13    34 1   
    28    14    15 ar  
    29    14    35 1   
    30    15    16 ar  
    31    15    36 1   
    32    16    17 ar  
    33    16    37 1   
    34    17    38 1   
    35    18    19 1   
    36    18    23 2   
    37    19    20 1   
    38    19    25 1   
    39    19    39 1   
    40    20    24 1   
    41    20    26 1   
    42    20    40 1   
    43    24    26 1   
    44    24    41 1   
    45    24    42 1   
    46    25    43 1   
    47    25    44 1   
    48    26    45 1   
    49    26    46 1   
@<TRIPOS>SUBSTRUCTURE
     1 N4T         1 TEMP              0 ****  ****    0 ROOT
