@<TRIPOS>MOLECULE
N4T
   46    49     1     0     0
SMALL
No Charge or Current Charge


@<TRIPOS>ATOM
      1 C1          -5.1290    -0.2870     0.6030 ca         1 N4T       0.159000
      2 C2          -3.7690    -0.4270     0.9220 ca         1 N4T      -0.121000
      3 C3          -2.7750     0.0320     0.0330 ca         1 N4T      -0.048800
      4 C4          -3.1750     0.6310    -1.1860 ca         1 N4T       0.164000
      5 C5          -4.5380     0.7690    -1.5020 ca         1 N4T      -0.124000
      6 C6          -5.5190     0.3100    -0.6050 ca         1 N4T      -0.121000
      7 C10         -1.3360    -0.1260     0.3990 ce         1 N4T      -0.092400
      8 C11         -0.3310     0.9930     0.2620 c5         1 N4T       0.147200
      9 N12          0.8770     0.3520     0.8320 n          1 N4T      -0.417800
     10 C13          0.6210    -1.0560     1.2370 c5         1 N4T       0.190200
     11 C14         -0.8520    -1.2590     0.9310 c2         1 N4T      -0.193200
     12 C17          1.4620    -1.9470     0.3200 ca         1 N4T      -0.090300
     13 C19          1.3110    -1.9130    -1.0840 ca         1 N4T      -0.087000
     14 C20          2.0970    -2.7360    -1.9100 ca         1 N4T      -0.112500
     15 C21          3.0440    -3.6030    -1.3420 ca         1 N4T      -0.103000
     16 C22          3.2040    -3.6450     0.0520 ca         1 N4T      -0.112500
     17 C23          2.4180    -2.8220     0.8770 ca         1 N4T      -0.087000
     18 C8           2.0210     1.0640     1.2460 c          1 N4T       0.571100
     19 C7           2.2650     2.5120     0.6590 c3         1 N4T       0.127500
     20 C35          2.7860     2.4030    -0.7860 cx         1 N4T      -0.131700
     21 F40         -2.2560     1.0610    -2.0790 f          1 N4T      -0.175000
     22 F41         -6.0700    -0.7280     1.4670 f          1 N4T      -0.172000
     23 O2           2.8340     0.5420     2.0050 o          1 N4T      -0.600100
     24 C15          3.6200     3.4710    -1.4640 cx         1 N4T      -0.116900
     25 N1           3.1440     3.3950     1.5010 n8         1 N4T      -0.989200
     26 C12          4.2430     2.1400    -1.1010 cx         1 N4T      -0.116900
     27 H2          -3.4910    -0.8850     1.8680 ha         1 N4T       0.139000
     28 H5          -4.8300     1.2280    -2.4440 ha         1 N4T       0.139000
     29 H6          -6.5750     0.4140    -0.8440 ha         1 N4T       0.139000
     30 H111        -0.6370     1.8780     0.8360 h1         1 N4T       0.061700
     31 H112        -0.1660     1.2850    -0.7820 h1         1 N4T       0.061700
     32 H13          0.8460    -1.2230     2.3000 h1         1 N4T       0.082700
     33 H14         -1.4220    -2.1690     1.1210 ha         1 N4T       0.204000
     34 H19          0.5830    -1.2460    -1.5390 ha         1 N4T       0.113000
     35 H20          1.9710    -2.7000    -2.9900 ha         1 N4T       0.112500
     36 H21          3.6530    -4.2390    -1.9810 ha         1 N4T       0.112000
     37 H22          3.9380    -4.3150     0.4950 ha         1 N4T       0.112500
     38 H23          2.5540    -2.8620     1.9560 ha         1 N4T       0.113000
     39 H7           1.2870     3.0090     0.6170 h1         1 N4T       0.065700
     40 H35          2.0690     1.8920    -1.4240 hc         1 N4T       0.075700
     41 H151         3.4270     3.6680    -2.5160 hc         1 N4T       0.075450
     42 H152         3.9240     4.3440    -0.8930 hc         1 N4T       0.075450
     43 HN11         2.7750     3.4170     2.4600 hn         1 N4T       0.410000
     44 HN12         4.0490     2.9250     1.6160 hn         1 N4T       0.410000
     45 H121         4.9580     2.1220    -0.2830 hc         1 N4T       0.075450
     46 H122         4.4660     1.4470    -1.9090 hc         1 N4T       0.075450
@<TRIPOS>BOND
     1     1     2 ar  
     2     1     6 ar  
     3     1    22 1   
     4     2     3 ar  
     5     2    27 1   
     6     3     4 ar  
     7     3     7 1   
     8     4     5 ar  
     9     4    21 1   
    10     5     6 ar  
    11     5    28 1   
    12     6    29 1   
    13     7     8 1   
    14     7    11 2   
    15     8     9 1   
    16     8    30 1   
    17     8    31 1   
    18     9    10 1   
    19     9    18 1   
    20    10    11 1   
    21    10    12 1   
    22    10    32 1   
    23    11    33 1   
    24    12    13 ar  
    25    12    17 ar  
    26    13    14 ar  
    27    13    34 1   
    28    14    15 ar  
    29    14    35 1   
    30    15    16 ar  
    31    15    36 1   
    32    16    17 ar  
    33    16    37 1   
    34    17    38 1   
    35    18    19 1   
    36    18    23 2   
    37    19    20 1   
    38    19    25 1   
    39    19    39 1   
    40    20    24 1   
    41    20    26 1   
    42    20    40 1   
    43    24    26 1   
    44    24    41 1   
    45    24    42 1   
    46    25    43 1   
    47    25    44 1   
    48    26    45 1   
    49    26    46 1   
@<TRIPOS>SUBSTRUCTURE
     1 N4T         1 TEMP              0 ****  ****    0 ROOT
