@<TRIPOS>MOLECULE
N4U
   23    23     1     0     0
SMALL
bcc


@<TRIPOS>ATOM
      1 C1          13.0420    10.0140    44.1860 c3         1 N4U      -0.128400
      2 C2          11.6640     9.6860    43.7070 ca         1 N4U       0.637300
      3 C5           9.1830     9.0630    42.8640 ca         1 N4U      -0.173000
      4 C7           7.0470     7.8290    42.7680 c          1 N4U       0.672100
      5 C10          4.8420     6.6700    42.3130 c3         1 N4U      -0.078100
      6 C11          9.7320    10.3340    42.7160 ca         1 N4U       0.409700
      7 C9           5.6780     7.9240    42.1320 c3         1 N4U      -0.156400
      8 O8           7.3590     6.9610    43.5580 o          1 N4U      -0.568100
      9 N6           7.9010     8.8220    42.3830 ns         1 N4U      -0.472100
     10 N12         10.9490    10.6440    43.1260 nb         1 N4U      -0.687000
     11 N3          11.2330     8.4420    43.8860 nb         1 N4U      -0.687000
     12 C4          10.0170     8.1240    43.4720 ca         1 N4U       0.409700
     13 H14         13.2840    11.0570    43.9990 hc         1 N4U       0.058367
     14 H15         13.1350     9.8200    45.2550 hc         1 N4U       0.058367
     15 H13         13.7820     9.3900    43.6830 hc         1 N4U       0.058367
     16 H19          3.8700     6.8020    41.8390 hc         1 N4U       0.045700
     17 H20          5.3170     5.8010    41.8600 hc         1 N4U       0.045700
     18 H1           4.6690     6.4490    43.3650 hc         1 N4U       0.045700
     19 H21          9.1560    11.1250    42.2430 h4         1 N4U       0.035600
     20 H18          5.7930     8.1580    41.0700 hc         1 N4U       0.059200
     21 H22          5.1670     8.7870    42.5690 hc         1 N4U       0.059200
     22 H17          7.5280     9.5320    41.7700 hn         1 N4U       0.318500
     23 H16          9.7050     7.1010    43.6240 h4         1 N4U       0.035600
@<TRIPOS>BOND
     1     1     2 1   
     2     1    13 1   
     3     1    14 1   
     4     1    15 1   
     5     2    10 ar  
     6     2    11 ar  
     7     3     6 ar  
     8     3     9 1   
     9     3    12 ar  
    10     4     7 1   
    11     4     8 2   
    12     4     9 1   
    13     5     7 1   
    14     5    16 1   
    15     5    17 1   
    16     5    18 1   
    17     6    10 ar  
    18     6    19 1   
    19     7    20 1   
    20     7    21 1   
    21     9    22 1   
    22    11    12 ar  
    23    12    23 1   
@<TRIPOS>SUBSTRUCTURE
     1 N4U         1 TEMP              0 ****  ****    0 ROOT
