@<TRIPOS>MOLECULE
N4U
   23    23     1     0     0
SMALL
No Charge or Current Charge


@<TRIPOS>ATOM
      1 C1          13.1480     9.9260    43.9440 c3         1 N4U      -0.128400
      2 C2          11.6950     9.6170    43.6270 ca         1 N4U       0.111300
      3 C5           9.1160     9.0570    43.0530 ca         1 N4U      -0.135000
      4 C7           6.7950     7.9660    43.2510 c          1 N4U       0.605100
      5 C10          5.1690     6.7330    41.7190 c3         1 N4U      -0.078100
      6 C11          9.8520    10.0000    42.3090 ca         1 N4U       0.081400
      7 C9           5.4330     8.0130    42.5440 c3         1 N4U      -0.156400
      8 O8           6.9810     7.2600    44.2360 o          1 N4U      -0.568100
      9 N6           7.7580     8.8050    42.7000 ns         1 N4U      -0.146000
     10 N12         11.1400    10.2830    42.5920 nb         1 N4U      -0.161000
     11 N3          11.0830     8.6940    44.4000 nb         1 N4U      -0.161000
     12 C4           9.7950     8.4150    44.1130 ca         1 N4U       0.081400
     13 H14         13.4060    10.9590    43.6830 hc         1 N4U       0.058367
     14 H15         13.3630     9.7940    45.0110 hc         1 N4U       0.058367
     15 H13         13.8180     9.2630    43.3830 hc         1 N4U       0.058367
     16 H19          4.1910     6.7900    41.2260 hc         1 N4U       0.045700
     17 H20          5.9350     6.6040    40.9460 hc         1 N4U       0.045700
     18 H1           5.1750     5.8460    42.3640 hc         1 N4U       0.045700
     19 H21          9.4070    10.5390    41.4740 h4         1 N4U       0.035600
     20 H18          5.3890     8.8740    41.8650 hc         1 N4U       0.059200
     21 H22          4.6460     8.1010    43.3020 hc         1 N4U       0.059200
     22 H17          7.4360     9.3300    41.8970 hn         1 N4U       0.152000
     23 H16          9.3240     7.6680    44.7480 h4         1 N4U       0.035600
@<TRIPOS>BOND
     1     1     2 1   
     2     1    13 1   
     3     1    14 1   
     4     1    15 1   
     5     2    10 ar  
     6     2    11 ar  
     7     3     6 ar  
     8     3     9 1   
     9     3    12 ar  
    10     4     7 1   
    11     4     8 2   
    12     4     9 1   
    13     5     7 1   
    14     5    16 1   
    15     5    17 1   
    16     5    18 1   
    17     6    10 ar  
    18     6    19 1   
    19     7    20 1   
    20     7    21 1   
    21     9    22 1   
    22    11    12 ar  
    23    12    23 1   
@<TRIPOS>SUBSTRUCTURE
     1 N4U         1 TEMP              0 ****  ****    0 ROOT
