@<TRIPOS>MOLECULE
N4W
   52    55     1     0     0
SMALL
bcc


@<TRIPOS>ATOM
      1 C1           0.6130    -0.4080    -0.2740 ca         1 N4W       0.286600
      2 C2           0.6920    -1.6400    -0.9470 ca         1 N4W      -0.244000
      3 C3           1.7900    -2.4610    -0.7970 ca         1 N4W       0.025000
      4 C11          5.3570    -2.5850    -1.0870 c3         1 N4W      -0.226300
      5 C12         -1.6080     0.1540    -1.1880 c3         1 N4W       0.239500
      6 C13         -2.4260     1.4290    -1.2860 ca         1 N4W       0.403600
      7 C15         -2.9520     3.4560    -0.3790 ca         1 N4W       0.416200
      8 C16         -3.8990     3.7130    -1.3550 ca         1 N4W      -0.241300
      9 C17         -4.0990     2.7580    -2.3430 ca         1 N4W      -0.084000
     10 C18         -3.3520     1.5940    -2.3100 ca         1 N4W      -0.229300
     11 C19         -2.4880    -0.9540    -0.6280 ca         1 N4W      -0.109300
     12 C20         -3.0820    -1.8790    -1.4780 ca         1 N4W      -0.121000
     13 C21         -3.9130    -2.8660    -0.9660 ca         1 N4W      -0.119000
     14 C22         -4.1590    -2.9420     0.3970 ca         1 N4W      -0.112000
     15 C23         -3.5570    -2.0140     1.2330 ca         1 N4W       0.029400
     16 C24         -2.7270    -1.0220     0.7390 ca         1 N4W      -0.095000
     17 C27          1.9070     2.3970     0.6790 ca         1 N4W       0.896900
     18 C29          2.3300     3.6170    -1.1700 ca         1 N4W       0.476700
     19 C30          2.3880     4.7780    -0.4180 ca         1 N4W      -0.429600
     20 C4           2.8390    -2.0780     0.0290 ca         1 N4W      -0.347500
     21 C5           2.7900    -0.8570     0.6970 ca         1 N4W       0.012000
     22 C6           1.6980    -0.0290     0.5540 ca         1 N4W       0.033600
     23 N7          -0.4470     0.4150    -0.3920 nu         1 N4W      -0.750600
     24 S8           4.2470    -3.1150     0.2000 sy         1 N4W       1.107300
     25 O9           3.8480    -4.4920    -0.0960 o          1 N4W      -0.604800
     26 O10          4.8840    -2.8320     1.4860 o          1 N4W      -0.604800
     27 N14         -2.2330     2.3390    -0.3450 nb         1 N4W      -0.687000
     28 CL1         -3.8500    -2.0970     2.9410 cl         1 N4W      -0.106400
     29 N26          1.6350     1.1930     1.2540 nu         1 N4W      -0.758300
     30 N28          2.0960     2.4270    -0.6380 nb         1 N4W      -0.757500
     31 C31          2.1850     4.6220     0.9440 ca         1 N4W       0.476700
     32 N32          1.9430     3.4470     1.5020 nb         1 N4W      -0.757500
     33 H1          -0.1190    -1.9720    -1.5790 ha         1 N4W       0.139000
     34 H2           1.8150    -3.4060    -1.3230 ha         1 N4W       0.150000
     35 H3           5.6240    -1.5430    -0.9290 h1         1 N4W       0.099367
     36 H4           6.2470    -3.2120    -1.0310 h1         1 N4W       0.099367
     37 H5           4.8740    -2.7090    -2.0530 h1         1 N4W       0.099367
     38 H6          -1.3100    -0.1300    -2.2040 h1         1 N4W       0.070700
     39 H7          -2.7610     4.1770     0.4070 h4         1 N4W       0.025100
     40 H8          -4.4590     4.6380    -1.3440 ha         1 N4W       0.147000
     41 H9          -4.8230     2.9200    -3.1300 ha         1 N4W       0.142000
     42 H10         -3.4780     0.8300    -3.0660 ha         1 N4W       0.145000
     43 H11         -2.8890    -1.8370    -2.5430 ha         1 N4W       0.131000
     44 H12         -4.3700    -3.5880    -1.6290 ha         1 N4W       0.138000
     45 H13         -4.8000    -3.7140     0.8000 ha         1 N4W       0.150000
     46 H14         -2.2640    -0.3120     1.4140 ha         1 N4W       0.158000
     47 H15          2.4800     3.6430    -2.2440 h4         1 N4W       0.021600
     48 H16          2.5840     5.7420    -0.8630 ha         1 N4W       0.153000
     49 H17          3.6020    -0.5410     1.3390 ha         1 N4W       0.153000
     50 H18         -0.4970     1.2440     0.1840 hn         1 N4W       0.478800
     51 H19          1.6390     1.1710     2.2620 hn         1 N4W       0.460800
     52 H20          2.2180     5.4750     1.6120 h4         1 N4W       0.021600
@<TRIPOS>BOND
     1     1     2 ar  
     2     1    22 ar  
     3     1    23 1   
     4     2     3 ar  
     5     2    33 1   
     6     3    20 ar  
     7     3    34 1   
     8     4    24 1   
     9     4    35 1   
    10     4    36 1   
    11     4    37 1   
    12     5     6 1   
    13     5    11 1   
    14     5    23 1   
    15     5    38 1   
    16     6    10 ar  
    17     6    27 ar  
    18     7     8 ar  
    19     7    27 ar  
    20     7    39 1   
    21     8     9 ar  
    22     8    40 1   
    23     9    10 ar  
    24     9    41 1   
    25    10    42 1   
    26    11    12 ar  
    27    11    16 ar  
    28    12    13 ar  
    29    12    43 1   
    30    13    14 ar  
    31    13    44 1   
    32    14    15 ar  
    33    14    45 1   
    34    15    16 ar  
    35    15    28 1   
    36    16    46 1   
    37    17    29 1   
    38    17    30 ar  
    39    17    32 ar  
    40    18    19 ar  
    41    18    30 ar  
    42    18    47 1   
    43    19    31 ar  
    44    19    48 1   
    45    20    21 ar  
    46    20    24 1   
    47    21    22 ar  
    48    21    49 1   
    49    22    29 1   
    50    23    50 1   
    51    24    25 2   
    52    24    26 2   
    53    29    51 1   
    54    31    32 ar  
    55    31    52 1   
@<TRIPOS>SUBSTRUCTURE
     1 N4W         1 TEMP              0 ****  ****    0 ROOT
