@<TRIPOS>MOLECULE
N4W
   52    55     1     0     0
SMALL
No Charge or Current Charge


@<TRIPOS>ATOM
      1 C1           0.8440    -0.4080    -1.1170 ca         1 N4W       0.425000
      2 C2           0.9860    -1.5890    -1.8610 ca         1 N4W      -0.226000
      3 C3           1.8520    -2.6040    -1.4310 ca         1 N4W       0.043000
      4 C11          5.2440    -3.2980    -0.4410 c3         1 N4W      -0.337100
      5 C12         -1.5140     0.3190    -1.7730 c3         1 N4W       0.239500
      6 C13         -2.3340     1.6320    -1.6880 ca         1 N4W       0.338300
      7 C15         -2.4790     3.8360    -0.9430 ca         1 N4W       0.350900
      8 C16         -3.7610     3.9860    -1.4960 ca         1 N4W      -0.158000
      9 C17         -4.3470     2.9040    -2.1730 ca         1 N4W      -0.066000
     10 C18         -3.6170     1.7080    -2.2670 ca         1 N4W      -0.146000
     11 C19         -2.0320    -0.7120    -0.7680 ca         1 N4W      -0.109300
     12 C20         -2.5430    -1.9490    -1.2140 ca         1 N4W      -0.103000
     13 C21         -3.0040    -2.9020    -0.2890 ca         1 N4W      -0.101000
     14 C22         -2.9560    -2.6280     1.0890 ca         1 N4W      -0.094000
     15 C23         -2.4480    -1.3990     1.5390 ca         1 N4W       0.121000
     16 C24         -1.9910    -0.4440     0.6170 ca         1 N4W      -0.077000
     17 C27          1.4070     2.3100     0.6650 ca         1 N4W       0.370900
     18 C29          1.6070     4.0710    -0.7870 ca         1 N4W       0.148400
     19 C30          1.2510     4.9510     0.2480 ca         1 N4W      -0.281000
     20 C4           2.5770    -2.4410    -0.2370 ca         1 N4W      -0.347500
     21 C5           2.4430    -1.2540     0.5160 ca         1 N4W       0.030000
     22 C6           1.5930    -0.2140     0.0890 ca         1 N4W       0.172000
     23 N7          -0.0710     0.5520    -1.5540 nu         1 N4W      -0.944200
     24 S8           3.6870    -3.7400     0.3250 sy         1 N4W       1.076500
     25 O9           3.2680    -5.0130    -0.2740 o          1 N4W      -0.534000
     26 O10          3.8770    -3.6040     1.7750 o          1 N4W      -0.534000
     27 N14         -1.7720     2.6870    -1.0300 nb         1 N4W      -0.687000
     28 Cl1         -2.3800    -1.0540     3.2620 cl         1 N4W      -0.198000
     29 N26          1.4790     0.9450     0.9160 nu         1 N4W      -0.951900
     30 N28          1.6890     2.7430    -0.5790 nb         1 N4W      -0.231500
     31 C31          0.9860     4.3950     1.5110 ca         1 N4W       0.148400
     32 N32          1.0670     3.0670     1.7220 nb         1 N4W      -0.231500
     33 H1           0.4160    -1.7230    -2.7740 ha         1 N4W       0.121000
     34 H2           1.9480    -3.5140    -2.0240 ha         1 N4W       0.132000
     35 H3           5.5300    -2.3030    -0.0850 h1         1 N4W       0.099367
     36 H4           5.9910    -4.0430    -0.1510 h1         1 N4W       0.099367
     37 H5           5.1010    -3.2930    -1.5270 h1         1 N4W       0.099367
     38 H6          -1.6510    -0.0910    -2.7830 h1         1 N4W       0.070700
     39 H7          -2.0030     4.6600    -0.4120 h4         1 N4W       0.025100
     40 H8          -4.2880     4.9310    -1.3970 ha         1 N4W       0.129000
     41 H9          -5.3400     2.9890    -2.6110 ha         1 N4W       0.124000
     42 H10         -4.0370     0.8470    -2.7790 ha         1 N4W       0.127000
     43 H11         -2.5790    -2.1750    -2.2770 ha         1 N4W       0.113000
     44 H12         -3.3950    -3.8550    -0.6400 ha         1 N4W       0.120000
     45 H13         -3.3090    -3.3650     1.8050 ha         1 N4W       0.132000
     46 H14         -1.5930     0.5010     0.9800 ha         1 N4W       0.140000
     47 H15          1.8290     4.4310    -1.7900 h4         1 N4W       0.021600
     48 H16          1.1850     6.0220     0.0790 ha         1 N4W       0.135000
     49 H17          3.0080    -1.1270     1.4370 ha         1 N4W       0.135000
     50 H18          0.0770     1.4270    -1.0410 hn         1 N4W       0.534000
     51 H19          1.5580     0.7530     1.9170 hn         1 N4W       0.516000
     52 H20          0.7080     5.0160     2.3600 h4         1 N4W       0.021600
@<TRIPOS>BOND
     1     1     2 ar  
     2     1    22 ar  
     3     1    23 1   
     4     2     3 ar  
     5     2    33 1   
     6     3    20 ar  
     7     3    34 1   
     8     4    24 1   
     9     4    35 1   
    10     4    36 1   
    11     4    37 1   
    12     5     6 1   
    13     5    11 1   
    14     5    23 1   
    15     5    38 1   
    16     6    10 ar  
    17     6    27 ar  
    18     7     8 ar  
    19     7    27 ar  
    20     7    39 1   
    21     8     9 ar  
    22     8    40 1   
    23     9    10 ar  
    24     9    41 1   
    25    10    42 1   
    26    11    12 ar  
    27    11    16 ar  
    28    12    13 ar  
    29    12    43 1   
    30    13    14 ar  
    31    13    44 1   
    32    14    15 ar  
    33    14    45 1   
    34    15    16 ar  
    35    15    28 1   
    36    16    46 1   
    37    17    29 1   
    38    17    30 ar  
    39    17    32 ar  
    40    18    19 ar  
    41    18    30 ar  
    42    18    47 1   
    43    19    31 ar  
    44    19    48 1   
    45    20    21 ar  
    46    20    24 1   
    47    21    22 ar  
    48    21    49 1   
    49    22    29 1   
    50    23    50 1   
    51    24    25 2   
    52    24    26 2   
    53    29    51 1   
    54    31    32 ar  
    55    31    52 1   
@<TRIPOS>SUBSTRUCTURE
     1 N4W         1 TEMP              0 ****  ****    0 ROOT
