@<TRIPOS>MOLECULE
N4X
   43    45     1     0     0
SMALL
abcg2


@<TRIPOS>ATOM
      1 C1         150.1570    45.4600    30.8150 ca         1 N4X      -0.092000
      2 C2         152.0340    44.9950    32.2110 ca         1 N4X      -0.079000
      3 C3         151.2980    45.3590    33.3260 ca         1 N4X      -0.176000
      4 C4         151.4700    45.0340    30.9450 ca         1 N4X      -0.151000
      5 C5         149.4250    45.8900    31.9150 ca         1 N4X      -0.127000
      6 C6         149.9720    45.8100    33.2160 ca         1 N4X       0.319000
      7 C8         147.8290    46.5680    34.2040 c6         1 N4X       0.232200
      8 C9         147.2700    45.9530    32.9190 c6         1 N4X       0.097000
      9 C11        147.7400    48.0950    34.1530 c3         1 N4X      -0.102600
     10 C12        146.9850    46.0330    35.3600 c3         1 N4X      -0.102600
     11 C16        150.1010    45.0060    36.3760 ca         1 N4X      -0.106300
     12 C17        150.7540    45.0710    37.6050 ca         1 N4X      -0.103500
     13 C18        150.9750    43.9250    38.3550 ca         1 N4X      -0.109500
     14 C19        150.5470    42.6900    37.8820 ca         1 N4X      -0.110000
     15 C20        149.8990    42.6170    36.6580 ca         1 N4X      -0.109500
     16 C21        149.6770    43.7680    35.9100 ca         1 N4X      -0.103500
     17 N10        148.0890    46.3170    31.7870 n          1 N4X      -0.232400
     18 N22        148.5820    47.8880    30.1400 nt         1 N4X      -0.604000
     19 N7         149.2280    46.1390    34.3260 nh         1 N4X      -0.834400
     20 O14        146.4540    47.5600    30.8170 o          1 N4X      -0.637100
     21 H11        149.6900    45.4720    29.8380 ha         1 N4X       0.125000
     22 H21        153.0550    44.6600    32.3440 ha         1 N4X       0.112000
     23 H31        151.7680    45.2760    34.2950 ha         1 N4X       0.121000
     24 H41        152.0300    44.7230    30.0740 ha         1 N4X       0.117000
     25 H92        146.2510    46.2940    32.7630 h1         1 N4X       0.076200
     26 H91        147.2460    44.8640    33.0140 h1         1 N4X       0.076200
     27 H111       148.0960    48.5370    35.0850 hc         1 N4X       0.045033
     28 H112       148.3440    48.5060    33.3430 hc         1 N4X       0.045033
     29 H113       146.7080    48.4190    34.0100 hc         1 N4X       0.045033
     30 H121       147.2830    46.4500    36.3210 hc         1 N4X       0.045033
     31 H122       145.9420    46.3090    35.2030 hc         1 N4X       0.045033
     32 H123       147.0440    44.9460    35.4250 hc         1 N4X       0.045033
     33 H152       150.8560    46.7840    35.4620 h1         1 N4X       0.052700
     34 H151       149.3150    46.9800    36.2160 h1         1 N4X       0.052700
     35 H171       151.0930    46.0310    37.9810 ha         1 N4X       0.116000
     36 H181       151.4810    43.9950    39.3100 ha         1 N4X       0.112500
     37 H191       150.7190    41.7940    38.4640 ha         1 N4X       0.113000
     38 H201       149.5630    41.6600    36.2790 ha         1 N4X       0.112500
     39 H211       149.1670    43.6970    34.9570 ha         1 N4X       0.116000
     40 H222       148.2750    48.6700    29.5870 hn         1 N4X       0.315000
     41 H221       149.5560    47.8800    30.3900 hn         1 N4X       0.315000
     42 C13        147.6430    47.2870    30.9110 c          1 N4X       0.656100
     43 C15        149.8890    46.2880    35.5970 c3         1 N4X       0.275100
@<TRIPOS>BOND
     1     1     4 ar  
     2     1     5 ar  
     3     1    21 1   
     4     2     3 ar  
     5     2     4 ar  
     6     2    22 1   
     7     3     6 ar  
     8     3    23 1   
     9     4    24 1   
    10     5     6 ar  
    11     5    17 1   
    12     6    19 1   
    13     7     8 1   
    14     7     9 1   
    15     7    10 1   
    16     7    19 1   
    17     8    17 1   
    18     8    25 1   
    19     8    26 1   
    20     9    27 1   
    21     9    28 1   
    22     9    29 1   
    23    10    30 1   
    24    10    31 1   
    25    10    32 1   
    26    11    12 ar  
    27    11    16 ar  
    28    11    43 1   
    29    12    13 ar  
    30    12    35 1   
    31    13    14 ar  
    32    13    36 1   
    33    14    15 ar  
    34    14    37 1   
    35    15    16 ar  
    36    15    38 1   
    37    16    39 1   
    38    17    42 1   
    39    18    40 1   
    40    18    41 1   
    41    18    42 1   
    42    19    43 1   
    43    20    42 2   
    44    33    43 1   
    45    34    43 1   
@<TRIPOS>SUBSTRUCTURE
     1 N4X         1 TEMP              0 ****  ****    0 ROOT
