@<TRIPOS>MOLECULE
N4X
   43    45     1     0     0
SMALL
No Charge or Current Charge


@<TRIPOS>ATOM
      1 C1         150.1270    45.5250    30.6770 ca         1 N4X      -0.092000
      2 C2         152.0540    44.9550    32.0350 ca         1 N4X      -0.079000
      3 C3         151.3360    45.2960    33.1920 ca         1 N4X      -0.176000
      4 C4         151.4510    45.0780    30.7770 ca         1 N4X      -0.151000
      5 C5         149.3790    45.8280    31.8380 ca         1 N4X      -0.127000
      6 C6         150.0030    45.7620    33.1180 ca         1 N4X       0.319000
      7 C8         147.8300    46.5370    34.2210 c6         1 N4X       0.232200
      8 C9         147.1920    46.0480    32.8850 c6         1 N4X       0.097000
      9 C11        147.7280    48.0910    34.3100 c3         1 N4X      -0.102600
     10 C12        147.0070    45.9280    35.4000 c3         1 N4X      -0.102600
     11 C16        150.1470    45.0050    36.4530 ca         1 N4X      -0.106300
     12 C17        150.6250    45.1200    37.7740 ca         1 N4X      -0.103500
     13 C18        150.7940    43.9780    38.5760 ca         1 N4X      -0.109500
     14 C19        150.4860    42.7070    38.0640 ca         1 N4X      -0.110000
     15 C20        150.0100    42.5800    36.7490 ca         1 N4X      -0.109500
     16 C21        149.8410    43.7210    35.9470 ca         1 N4X      -0.103500
     17 N10        148.0570    46.4000    31.7430 n          1 N4X      -0.232400
     18 N22        148.5710    47.9300    30.0190 nt         1 N4X      -0.604000
     19 N7         149.2810    46.1300    34.3050 nh         1 N4X      -0.834400
     20 O14        146.4850    47.7910    30.7470 o          1 N4X      -0.637100
     21 H11        149.6700    45.5880    29.6910 ha         1 N4X       0.125000
     22 H21        153.0790    44.6000    32.1140 ha         1 N4X       0.112000
     23 H31        151.8370    45.1860    34.1470 ha         1 N4X       0.121000
     24 H41        152.0090    44.8210    29.8790 ha         1 N4X       0.117000
     25 H92        146.1820    46.4630    32.7740 h1         1 N4X       0.076200
     26 H91        147.0900    44.9540    32.9130 h1         1 N4X       0.076200
     27 H111       148.0660    48.4740    35.2790 hc         1 N4X       0.045033
     28 H112       148.3360    48.5760    33.5370 hc         1 N4X       0.045033
     29 H113       146.6940    48.4290    34.1740 hc         1 N4X       0.045033
     30 H121       147.3250    46.3090    36.3770 hc         1 N4X       0.045033
     31 H122       145.9410    46.1640    35.2990 hc         1 N4X       0.045033
     32 H123       147.0990    44.8360    35.4240 hc         1 N4X       0.045033
     33 H152       150.9730    46.7230    35.4530 h1         1 N4X       0.052700
     34 H151       149.4570    47.0170    36.2390 h1         1 N4X       0.052700
     35 H171       150.8670    46.0990    38.1820 ha         1 N4X       0.116000
     36 H181       151.1630    44.0780    39.5950 ha         1 N4X       0.112500
     37 H191       150.6170    41.8230    38.6850 ha         1 N4X       0.113000
     38 H201       149.7710    41.5960    36.3510 ha         1 N4X       0.112500
     39 H211       149.4710    43.6000    34.9320 ha         1 N4X       0.116000
     40 H222       148.3060    48.6500    29.3660 hn         1 N4X       0.315000
     41 H221       149.5310    47.6360    30.1110 hn         1 N4X       0.315000
     42 C13        147.6340    47.3890    30.8210 c          1 N4X       0.656100
     43 C15        149.9800    46.2810    35.6160 c3         1 N4X       0.275100
@<TRIPOS>BOND
     1     1     4 ar  
     2     1     5 ar  
     3     1    21 1   
     4     2     3 ar  
     5     2     4 ar  
     6     2    22 1   
     7     3     6 ar  
     8     3    23 1   
     9     4    24 1   
    10     5     6 ar  
    11     5    17 1   
    12     6    19 1   
    13     7     8 1   
    14     7     9 1   
    15     7    10 1   
    16     7    19 1   
    17     8    17 1   
    18     8    25 1   
    19     8    26 1   
    20     9    27 1   
    21     9    28 1   
    22     9    29 1   
    23    10    30 1   
    24    10    31 1   
    25    10    32 1   
    26    11    12 ar  
    27    11    16 ar  
    28    11    43 1   
    29    12    13 ar  
    30    12    35 1   
    31    13    14 ar  
    32    13    36 1   
    33    14    15 ar  
    34    14    37 1   
    35    15    16 ar  
    36    15    38 1   
    37    16    39 1   
    38    17    42 1   
    39    18    40 1   
    40    18    41 1   
    41    18    42 1   
    42    19    43 1   
    43    20    42 2   
    44    33    43 1   
    45    34    43 1   
@<TRIPOS>SUBSTRUCTURE
     1 N4X         1 TEMP              0 ****  ****    0 ROOT
