@<TRIPOS>MOLECULE
N4Z
   72    77     1     0     0
SMALL
No Charge or Current Charge


@<TRIPOS>ATOM
      1 C1           0.1080     0.2660    -1.8180 ca         1 N4Z       0.366000
      2 C2          -0.8100     1.3140    -1.9900 ca         1 N4Z      -0.194000
      3 C3          -0.5110     2.3920    -2.8370 ca         1 N4Z       0.027000
      4 C41          3.6570    -1.0230     3.5300 c6         1 N4Z       0.182300
      5 C42          4.0740    -0.0300     4.6630 c6         1 N4Z       0.125300
      6 C44          3.0060     1.8420     3.5150 c6         1 N4Z       0.125300
      7 C45          2.5530     0.9200     2.3370 c6         1 N4Z       0.182300
      8 C11          1.9180     4.9530    -3.5180 c3         1 N4Z      -0.340100
      9 C12         -0.6920    -0.7750     0.3860 c3         1 N4Z       0.223500
     10 C13         -2.2180    -0.7850     0.4360 ca         1 N4Z      -0.060300
     11 C14         -2.9430     0.3290     0.8950 ca         1 N4Z       0.077100
     12 C15         -4.3110     0.3290     0.9480 ca         1 N4Z       0.053100
     13 C16         -5.0650    -0.7810     0.5490 ca         1 N4Z      -0.064000
     14 C17         -4.3730    -1.9180     0.0830 ca         1 N4Z      -0.106000
     15 C18         -2.9590    -1.9200     0.0270 ca         1 N4Z      -0.093000
     16 C19         -0.0850    -1.9220     1.2410 ca         1 N4Z       0.312300
     17 C20         -0.1190    -1.8810     2.6590 ca         1 N4Z       0.074000
     18 C21          0.4510    -2.9390     3.3850 ca         1 N4Z      -0.064000
     19 C22          1.0460    -3.9960     2.6770 ca         1 N4Z      -0.152000
     20 C23          1.0430    -3.9700     1.2740 ca         1 N4Z       0.348900
     21 C28         -3.6000     2.2700     1.7130 c5         1 N4Z       0.596000
     22 C4           0.7120     2.4170    -3.5340 ca         1 N4Z      -0.325500
     23 C5           1.6400     1.3660    -3.3690 ca         1 N4Z       0.040000
     24 C6           1.3610     0.2880    -2.5060 ca         1 N4Z       0.201000
     25 N7           2.3280    -0.7390    -2.3350 nu         1 N4Z      -0.956900
     26 S8           1.1060     3.7970    -4.6190 sy         1 N4Z       1.074500
     27 O9          -0.1460     4.4330    -5.0490 o          1 N4Z      -0.527500
     28 O10          2.1150     3.3610    -5.5920 o          1 N4Z      -0.527500
     29 N24          0.4870    -2.9640     0.5630 nb         1 N4Z      -0.666000
     30 Cl1         -0.8550    -0.5450     3.5480 cl         1 N4Z      -0.171000
     31 N26         -0.2350    -0.8350    -1.0220 nu         1 N4Z      -0.899200
     32 O27         -2.4120     1.5080     1.3150 os         1 N4Z      -0.353100
     33 O29         -4.8140     1.5020     1.4120 os         1 N4Z      -0.353100
     34 F30         -3.5450     2.5390     3.0780 f          1 N4Z      -0.080000
     35 F31         -3.6300     3.4840     1.0310 f          1 N4Z      -0.080000
     36 C32          2.9430    -1.2270    -1.2030 ca         1 N4Z       0.460900
     37 N33          2.8250    -0.5190    -0.0780 nb         1 N4Z      -0.356000
     38 C34          3.4360    -1.0560     0.9900 ca         1 N4Z       0.458900
     39 N35          4.1270    -2.2100     0.9690 nb         1 N4Z      -0.328000
     40 C36          4.1880    -2.8360    -0.2200 ca         1 N4Z       0.431300
     41 N37          3.6110    -2.3710    -1.3480 nb         1 N4Z      -0.388000
     42 O38          4.8900    -4.0210    -0.2540 os         1 N4Z      -0.434300
     43 C39          4.9740    -4.8090    -1.4580 c3         1 N4Z       0.164900
     44 N40          3.3640    -0.3450     2.2160 nh         1 N4Z      -0.769300
     45 N43          3.1340     1.1150     4.8090 n7         1 N4Z      -0.842400
     46 H1          -1.7670     1.2880    -1.4800 ha         1 N4Z       0.125000
     47 H2          -1.2370     3.1970    -2.9550 ha         1 N4Z       0.135000
     48 H3           4.4710    -1.7560     3.4280 h1         1 N4Z       0.067950
     49 H4           2.7700    -1.5780     3.8630 h1         1 N4Z       0.067950
     50 H5           4.1450    -0.5790     5.6140 h1         1 N4Z       0.064700
     51 H6           5.0810     0.3540     4.4380 h1         1 N4Z       0.064700
     52 H7           3.9770     2.2900     3.2550 h1         1 N4Z       0.064700
     53 H8           2.2880     2.6690     3.6220 h1         1 N4Z       0.064700
     54 H9           1.4930     0.6680     2.4760 h1         1 N4Z       0.067950
     55 H10          2.6190     1.5200     1.4170 h1         1 N4Z       0.067950
     56 H11          2.8070     4.4660    -3.1050 h1         1 N4Z       0.099700
     57 H12          2.1960     5.8400    -4.0980 h1         1 N4Z       0.099700
     58 H13          1.2160     5.2170    -2.7200 h1         1 N4Z       0.099700
     59 H14         -0.3280     0.1630     0.8310 h1         1 N4Z       0.102700
     60 H15         -6.1510    -0.7630     0.5960 ha         1 N4Z       0.145000
     61 H16         -4.9290    -2.7970    -0.2370 ha         1 N4Z       0.129000
     62 H17         -2.4370    -2.8020    -0.3410 ha         1 N4Z       0.134000
     63 H18          0.4380    -2.9350     4.4730 ha         1 N4Z       0.139000
     64 H19          1.5040    -4.8300     3.2030 ha         1 N4Z       0.132000
     65 H20          1.4960    -4.7780     0.7010 h4         1 N4Z       0.033100
     66 H21          2.5940     1.3860    -3.8920 ha         1 N4Z       0.144000
     67 H22          2.7480    -1.1000    -3.1930 hn         1 N4Z       0.523000
     68 H23          0.4560    -1.5810    -1.1450 hn         1 N4Z       0.480000
     69 H24          3.9760    -5.1190    -1.7930 h1         1 N4Z       0.050033
     70 H25          5.4530    -4.2410    -2.2660 h1         1 N4Z       0.050033
     71 H26          5.5690    -5.7140    -1.2810 h1         1 N4Z       0.050033
     72 H27          2.2100     0.7430     5.0610 hn         1 N4Z       0.402000
@<TRIPOS>BOND
     1     1     2 ar  
     2     1    24 ar  
     3     1    31 1   
     4     2     3 ar  
     5     2    46 1   
     6     3    22 ar  
     7     3    47 1   
     8     4     5 1   
     9     4    44 1   
    10     4    48 1   
    11     4    49 1   
    12     5    45 1   
    13     5    50 1   
    14     5    51 1   
    15     6     7 1   
    16     6    45 1   
    17     6    52 1   
    18     6    53 1   
    19     7    44 1   
    20     7    54 1   
    21     7    55 1   
    22     8    26 1   
    23     8    56 1   
    24     8    57 1   
    25     8    58 1   
    26     9    10 1   
    27     9    16 1   
    28     9    31 1   
    29     9    59 1   
    30    10    11 ar  
    31    10    15 ar  
    32    11    12 ar  
    33    11    32 1   
    34    12    13 ar  
    35    12    33 1   
    36    13    14 ar  
    37    13    60 1   
    38    14    15 ar  
    39    14    61 1   
    40    15    62 1   
    41    16    17 ar  
    42    16    29 ar  
    43    17    18 ar  
    44    17    30 1   
    45    18    19 ar  
    46    18    63 1   
    47    19    20 ar  
    48    19    64 1   
    49    20    29 ar  
    50    20    65 1   
    51    21    32 1   
    52    21    33 1   
    53    21    34 1   
    54    21    35 1   
    55    22    23 ar  
    56    22    26 1   
    57    23    24 ar  
    58    23    66 1   
    59    24    25 1   
    60    25    36 1   
    61    25    67 1   
    62    26    27 2   
    63    26    28 2   
    64    31    68 1   
    65    36    37 ar  
    66    36    41 ar  
    67    37    38 ar  
    68    38    39 ar  
    69    38    44 1   
    70    39    40 ar  
    71    40    41 ar  
    72    40    42 1   
    73    42    43 1   
    74    43    69 1   
    75    43    70 1   
    76    43    71 1   
    77    45    72 1   
@<TRIPOS>SUBSTRUCTURE
     1 N4Z         1 TEMP              0 ****  ****    0 ROOT
