@<TRIPOS>MOLECULE
N4Z
   72    77     1     0     0
SMALL
bcc


@<TRIPOS>ATOM
      1 C1          -0.2990     0.7680    -1.1190 ca         1 N4Z       0.227600
      2 C2          -0.6100     2.1210    -0.9240 ca         1 N4Z      -0.212000
      3 C3           0.2790     3.1120    -1.2830 ca         1 N4Z       0.009000
      4 C41          5.3890    -1.3040     2.4140 c6         1 N4Z       0.182300
      5 C42          6.6520    -0.4750     2.1880 c6         1 N4Z       0.125300
      6 C44          5.3250     1.4470     1.6340 c6         1 N4Z       0.125300
      7 C45          4.0470     0.6440     1.8540 c6         1 N4Z       0.182300
      8 C11          3.6220     4.2620    -0.7980 c3         1 N4Z      -0.229300
      9 C12         -2.1310    -0.0750     0.2610 c3         1 N4Z       0.223500
     10 C13         -3.0860    -1.2460     0.2590 ca         1 N4Z      -0.060300
     11 C14         -4.3420    -1.1670    -0.2870 ca         1 N4Z       0.077100
     12 C15         -5.2170    -2.2310    -0.3160 ca         1 N4Z       0.053100
     13 C16         -4.8990    -3.4630     0.1910 ca         1 N4Z      -0.082000
     14 C17         -3.6220    -3.5740     0.7490 ca         1 N4Z      -0.124000
     15 C18         -2.7460    -2.4990     0.7850 ca         1 N4Z      -0.111000
     16 C19         -1.4620     0.0650     1.6210 ca         1 N4Z       0.377600
     17 C20         -2.1160     0.6270     2.7130 ca         1 N4Z      -0.082900
     18 C21         -1.4580     0.7360     3.9260 ca         1 N4Z      -0.082000
     19 C22         -0.1590     0.2650     4.0110 ca         1 N4Z      -0.235300
     20 C23          0.4140    -0.2960     2.8810 ca         1 N4Z       0.414200
     21 C28         -6.2040    -0.4990    -1.2530 c5         1 N4Z       0.792200
     22 C4           1.5020     2.7730    -1.8500 ca         1 N4Z      -0.325500
     23 C5           1.8300     1.4410    -2.0580 ca         1 N4Z       0.022000
     24 C6           0.9470     0.4470    -1.6930 ca         1 N4Z       0.062600
     25 N7           1.3030    -0.9090    -1.8410 nu         1 N4Z      -0.763300
     26 S8           2.6550     4.0330    -2.2750 sy         1 N4Z       1.105300
     27 O9           1.9170     5.2710    -2.5260 o          1 N4Z      -0.598300
     28 O10          3.5440     3.5220    -3.3170 o          1 N4Z      -0.598300
     29 N24         -0.2250    -0.3910     1.7240 nb         1 N4Z      -0.666000
     30 CL1         -3.7460     1.1810     2.5620 cl         1 N4Z      -0.079400
     31 N26         -1.1700    -0.2420    -0.8010 nu         1 N4Z      -0.705600
     32 O27         -4.9530    -0.0910    -0.8700 os         1 N4Z      -0.329900
     33 O29         -6.3760    -1.8140    -0.9140 os         1 N4Z      -0.329900
     34 F30         -7.1360     0.2560    -0.6690 f          1 N4Z      -0.201300
     35 F31         -6.3600    -0.3350    -2.5680 f          1 N4Z      -0.201300
     36 C32          2.2320    -1.5110    -1.0610 ca         1 N4Z       0.986900
     37 N33          2.8170    -0.7930    -0.1240 nb         1 N4Z      -0.882000
     38 C34          3.7090    -1.4480     0.6240 ca         1 N4Z       0.984900
     39 N35          4.0320    -2.7370     0.4530 nb         1 N4Z      -0.854000
     40 C36          3.3810    -3.3360    -0.5260 ca         1 N4Z       0.957300
     41 N37          2.4730    -2.8030    -1.3210 nb         1 N4Z      -0.914000
     42 O38          3.7050    -4.6080    -0.6860 os         1 N4Z      -0.411100
     43 C39          3.0620    -5.3500    -1.7170 c3         1 N4Z       0.141700
     44 N40          4.3040    -0.7660     1.6160 nh         1 N4Z      -0.769300
     45 N43          6.4580     0.9510     2.3970 n7         1 N4Z      -0.787200
     46 H1          -1.5530     2.4160    -0.4850 ha         1 N4Z       0.143000
     47 H2           0.0090     4.1460    -1.1180 ha         1 N4Z       0.153000
     48 H3           5.5550    -2.3470     2.1560 h1         1 N4Z       0.067950
     49 H4           5.1030    -1.2610     3.4710 h1         1 N4Z       0.067950
     50 H5           7.4430    -0.8290     2.8510 h1         1 N4Z       0.064700
     51 H6           6.9980    -0.6310     1.1610 h1         1 N4Z       0.064700
     52 H7           5.5850     1.4170     0.5700 h1         1 N4Z       0.064700
     53 H8           5.1480     2.4930     1.8940 h1         1 N4Z       0.064700
     54 H9           3.7120     0.7660     2.8900 h1         1 N4Z       0.067950
     55 H10          3.2460     0.9820     1.2010 h1         1 N4Z       0.067950
     56 H11          4.1260     3.3310    -0.5480 h1         1 N4Z       0.099700
     57 H12          4.3600     5.0370    -1.0030 h1         1 N4Z       0.099700
     58 H13          2.9730     4.5720     0.0180 h1         1 N4Z       0.099700
     59 H14         -2.7130     0.8290     0.0680 h1         1 N4Z       0.102700
     60 H15         -5.5880    -4.2950     0.1640 ha         1 N4Z       0.163000
     61 H16         -3.3130    -4.5210     1.1670 ha         1 N4Z       0.147000
     62 H17         -1.7720    -2.6350     1.2380 ha         1 N4Z       0.152000
     63 H18         -1.9500     1.1780     4.7820 ha         1 N4Z       0.157000
     64 H19          0.3950     0.3300     4.9370 ha         1 N4Z       0.150000
     65 H20          1.4250    -0.6850     2.9060 h4         1 N4Z       0.033100
     66 H21          2.7790     1.1600    -2.4960 ha         1 N4Z       0.162000
     67 H22          0.8910    -1.4650    -2.5750 hn         1 N4Z       0.467800
     68 H23         -0.7280    -1.1520    -0.7970 hn         1 N4Z       0.424800
     69 H24          1.9820    -5.3800    -1.5790 h1         1 N4Z       0.050033
     70 H25          3.2820    -4.9420    -2.7040 h1         1 N4Z       0.050033
     71 H26          3.4630    -6.3580    -1.6470 h1         1 N4Z       0.050033
     72 H27          6.2920     1.1210     3.3830 hn         1 N4Z       0.346800
@<TRIPOS>BOND
     1     1     2 ar  
     2     1    24 ar  
     3     1    31 1   
     4     2     3 ar  
     5     2    46 1   
     6     3    22 ar  
     7     3    47 1   
     8     4     5 1   
     9     4    44 1   
    10     4    48 1   
    11     4    49 1   
    12     5    45 1   
    13     5    50 1   
    14     5    51 1   
    15     6     7 1   
    16     6    45 1   
    17     6    52 1   
    18     6    53 1   
    19     7    44 1   
    20     7    54 1   
    21     7    55 1   
    22     8    26 1   
    23     8    56 1   
    24     8    57 1   
    25     8    58 1   
    26     9    10 1   
    27     9    16 1   
    28     9    31 1   
    29     9    59 1   
    30    10    11 ar  
    31    10    15 ar  
    32    11    12 ar  
    33    11    32 1   
    34    12    13 ar  
    35    12    33 1   
    36    13    14 ar  
    37    13    60 1   
    38    14    15 ar  
    39    14    61 1   
    40    15    62 1   
    41    16    17 ar  
    42    16    29 ar  
    43    17    18 ar  
    44    17    30 1   
    45    18    19 ar  
    46    18    63 1   
    47    19    20 ar  
    48    19    64 1   
    49    20    29 ar  
    50    20    65 1   
    51    21    32 1   
    52    21    33 1   
    53    21    34 1   
    54    21    35 1   
    55    22    23 ar  
    56    22    26 1   
    57    23    24 ar  
    58    23    66 1   
    59    24    25 1   
    60    25    36 1   
    61    25    67 1   
    62    26    27 2   
    63    26    28 2   
    64    31    68 1   
    65    36    37 ar  
    66    36    41 ar  
    67    37    38 ar  
    68    38    39 ar  
    69    38    44 1   
    70    39    40 ar  
    71    40    41 ar  
    72    40    42 1   
    73    42    43 1   
    74    43    69 1   
    75    43    70 1   
    76    43    71 1   
    77    45    72 1   
@<TRIPOS>SUBSTRUCTURE
     1 N4Z         1 TEMP              0 ****  ****    0 ROOT
