@<TRIPOS>MOLECULE
N50
   33    33     1     0     0
SMALL
No Charge or Current Charge


@<TRIPOS>ATOM
      1 N1           0.1230     0.9020    -0.0890 nb         1 N50      -0.208000
      2 O1           1.7730     2.5180    -0.1620 os         1 N50      -0.434300
      3 C01          3.1490     2.9510    -0.1810 c3         1 N50       0.164900
      4 O2           3.0400    -2.0060     0.0490 os         1 N50      -0.454300
      5 C02          4.4420    -1.6670     0.0270 c3         1 N50       0.161900
      6 N2           2.4190     0.2630    -0.0590 nb         1 N50      -0.347000
      7 C1           1.4370     1.1820    -0.1000 ca         1 N50       0.385300
      8 C2           2.0640    -1.0320     0.0060 ca         1 N50       0.382300
      9 C3           0.7060    -1.4210     0.0310 ca         1 N50      -0.230300
     10 C4           0.3040    -2.8990     0.1260 c3         1 N50      -0.019800
     11 C5          -0.2600    -0.3870    -0.0270 ca         1 N50       0.218800
     12 C11         -1.7340    -0.6840    -0.0310 ce         1 N50      -0.266800
     13 C12         -2.7910     0.1490     0.2000 c2         1 N50      -0.074400
     14 C13         -2.7260     1.6180     0.6130 c3         1 N50       0.197300
     15 C14         -4.2360    -0.3410     0.1300 c3         1 N50       0.197300
     16 O3          -2.7010     2.4630    -0.5440 oh         1 N50      -0.651500
     17 O4          -4.4420    -1.1850    -1.0130 oh         1 N50      -0.651500
     18 H1           3.6750     2.5440    -1.0550 h1         1 N50       0.046367
     19 H2           3.2040     4.0460    -0.2320 h1         1 N50       0.046367
     20 H3           3.6750     2.6260     0.7260 h1         1 N50       0.046367
     21 H4           5.0550    -2.5760     0.0680 h1         1 N50       0.048367
     22 H5           4.6990    -1.1250    -0.8920 h1         1 N50       0.048367
     23 H6           4.7070    -1.0400     0.8880 h1         1 N50       0.048367
     24 H7          -0.4410    -3.0560     0.9150 hc         1 N50       0.045367
     25 H8          -0.1260    -3.2500    -0.8200 hc         1 N50       0.045367
     26 H9           1.1470    -3.5580     0.3630 hc         1 N50       0.045367
     27 H10         -1.9650    -1.7140    -0.2930 ha         1 N50       0.206000
     28 H13         -3.5960     1.8670     1.2370 h1         1 N50       0.029450
     29 H14         -1.8460     1.7960     1.2440 h1         1 N50       0.029450
     30 H15         -4.4680    -0.8930     1.0510 h1         1 N50       0.029450
     31 H16         -4.9260     0.5120     0.0820 h1         1 N50       0.029450
     32 H17         -2.5880     3.3840    -0.2200 ho         1 N50       0.443500
     33 H18         -5.3880    -1.4510    -1.0020 ho         1 N50       0.443500
@<TRIPOS>BOND
     1     1     7 ar  
     2     1    11 ar  
     3     2     3 1   
     4     2     7 1   
     5     3    18 1   
     6     3    19 1   
     7     3    20 1   
     8     4     5 1   
     9     4     8 1   
    10     5    21 1   
    11     5    22 1   
    12     5    23 1   
    13     6     7 ar  
    14     6     8 ar  
    15     8     9 ar  
    16     9    10 1   
    17     9    11 ar  
    18    10    24 1   
    19    10    25 1   
    20    10    26 1   
    21    11    12 1   
    22    12    13 2   
    23    12    27 1   
    24    13    14 1   
    25    13    15 1   
    26    14    16 1   
    27    14    28 1   
    28    14    29 1   
    29    15    17 1   
    30    15    30 1   
    31    15    31 1   
    32    16    32 1   
    33    17    33 1   
@<TRIPOS>SUBSTRUCTURE
     1 N50         1 TEMP              0 ****  ****    0 ROOT
