@<TRIPOS>MOLECULE
N50
   33    33     1     0     0
SMALL
abcg2


@<TRIPOS>ATOM
      1 N1           0.1370     0.9400    -0.3950 nb         1 N50      -0.208000
      2 O1           1.7680     2.4490    -0.4520 os         1 N50      -0.434300
      3 C01          3.1460     2.7920    -0.3750 c3         1 N50       0.164900
      4 O2           2.9120    -1.9070     0.2210 os         1 N50      -0.454300
      5 C02          4.2800    -1.5130     0.2690 c3         1 N50       0.161900
      6 N2           2.3810     0.2780    -0.1230 nb         1 N50      -0.347000
      7 C1           1.4280     1.1710    -0.3160 ca         1 N50       0.385300
      8 C2           1.9930    -0.9760     0.0090 ca         1 N50       0.382300
      9 C3           0.6510    -1.3770    -0.0560 ca         1 N50      -0.230300
     10 C4           0.2380    -2.8070     0.1270 c3         1 N50      -0.019800
     11 C5          -0.2530    -0.3340    -0.2540 ca         1 N50       0.218800
     12 C11         -1.6900    -0.6200    -0.3440 ce         1 N50      -0.266800
     13 C12         -2.6890     0.1390     0.1180 c2         1 N50      -0.074400
     14 C13         -2.5240     1.4230     0.8840 c3         1 N50       0.197300
     15 C14         -4.1250    -0.2550    -0.0650 c3         1 N50       0.197300
     16 O3          -2.8210     2.5000     0.0180 oh         1 N50      -0.651500
     17 O4          -4.2550    -1.3960    -0.8670 oh         1 N50      -0.651500
     18 H1           3.7290     2.3100    -1.1610 h1         1 N50       0.046367
     19 H2           3.1910     3.8700    -0.5040 h1         1 N50       0.046367
     20 H3           3.5750     2.5250     0.5910 h1         1 N50       0.046367
     21 H4           4.8400    -2.4230     0.4680 h1         1 N50       0.048367
     22 H5           4.6070    -1.0830    -0.6780 h1         1 N50       0.048367
     23 H6           4.4630    -0.7910     1.0640 h1         1 N50       0.048367
     24 H7          -0.1530    -2.9840     1.1300 hc         1 N50       0.045367
     25 H8          -0.5430    -3.0960    -0.5760 hc         1 N50       0.045367
     26 H9           1.0710    -3.4890    -0.0240 hc         1 N50       0.045367
     27 H10         -1.9480    -1.5600    -0.8170 ha         1 N50       0.206000
     28 H13         -3.2220     1.4000     1.7320 h1         1 N50       0.029450
     29 H14         -1.5180     1.5000     1.3000 h1         1 N50       0.029450
     30 H15         -4.5590    -0.4080     0.9340 h1         1 N50       0.029450
     31 H16         -4.6560     0.6070    -0.4930 h1         1 N50       0.029450
     32 H17         -2.8840     3.2960     0.5540 ho         1 N50       0.443500
     33 H18         -5.1830    -1.6450    -0.8850 ho         1 N50       0.443500
@<TRIPOS>BOND
     1     1     7 ar  
     2     1    11 ar  
     3     2     3 1   
     4     2     7 1   
     5     3    18 1   
     6     3    19 1   
     7     3    20 1   
     8     4     5 1   
     9     4     8 1   
    10     5    21 1   
    11     5    22 1   
    12     5    23 1   
    13     6     7 ar  
    14     6     8 ar  
    15     8     9 ar  
    16     9    10 1   
    17     9    11 ar  
    18    10    24 1   
    19    10    25 1   
    20    10    26 1   
    21    11    12 1   
    22    12    13 2   
    23    12    27 1   
    24    13    14 1   
    25    13    15 1   
    26    14    16 1   
    27    14    28 1   
    28    14    29 1   
    29    15    17 1   
    30    15    30 1   
    31    15    31 1   
    32    16    32 1   
    33    17    33 1   
@<TRIPOS>SUBSTRUCTURE
     1 N50         1 TEMP              0 ****  ****    0 ROOT
