@<TRIPOS>MOLECULE
N51
   69    73     1     0     0
SMALL
No Charge or Current Charge


@<TRIPOS>ATOM
      1 N1         -45.2410     2.6400   -13.7900 ns         1 N51      -0.144000
      2 N3         -35.5780    -2.8600   -15.3150 nu         1 N51      -0.952900
      3 C4         -47.1250     4.0110   -13.1720 ce         1 N51      -0.309200
      4 C5         -45.6670     3.7200   -13.0290 c          1 N51       0.613300
      5 C6         -43.9690     2.0250   -13.9530 ca         1 N51       0.013000
      6 C7         -42.8180     2.4030   -13.2340 ca         1 N51      -0.165500
      7 C8         -41.5940     1.7450   -13.4470 ca         1 N51      -0.039500
      8 C10        -42.6480     0.3130   -15.1000 ca         1 N51      -0.039500
      9 C13        -39.0990    -1.8890   -15.9800 ca         1 N51       0.011000
     10 C15        -38.4400    -3.6310   -17.5600 ca         1 N51      -0.061000
     11 C17        -36.8460    -2.8440   -15.8970 ca         1 N51       0.331000
     12 C20        -34.8580    -5.1980   -15.3010 ca         1 N51      -0.288000
     13 C21        -33.7850    -6.0950   -15.1250 ca         1 N51       0.254800
     14 C22        -32.4100    -4.2890   -14.7300 ca         1 N51       0.163900
     15 C24        -35.2050    -8.1680   -15.5330 cc         1 N51      -0.127100
     16 C26        -32.9580    -8.5900   -15.0720 ca         1 N51      -0.056800
     17 C28        -30.8880    -9.7800   -14.6880 ca         1 N51      -0.143000
     18 N          -49.4930     6.3580   -13.8880 n3         1 N51      -0.719600
     19 C          -49.2220     5.7720   -15.2210 c3         1 N51       0.153100
     20 O          -44.9390     4.4020   -12.3190 o          1 N51      -0.575100
     21 C1         -48.8950     7.7020   -13.7150 c3         1 N51       0.153100
     22 C11        -43.8680     0.9750   -14.8820 ca         1 N51      -0.165500
     23 C14        -39.4040    -2.7440   -17.0530 ca         1 N51      -0.192000
     24 C16        -37.1610    -3.6750   -16.9850 ca         1 N51      -0.172000
     25 C18        -37.8080    -1.9460   -15.4080 ca         1 N51      -0.175000
     26 C19        -34.5960    -3.8280   -15.1840 ca         1 N51       0.385900
     27 C2         -49.2150     5.4330   -12.7610 c3         1 N51       0.190000
     28 C23        -33.9840    -7.5620   -15.2400 cd         1 N51      -0.230000
     29 C25        -33.6050    -9.7820   -15.2710 ca         1 N51      -0.063200
     30 C27        -31.5810    -8.5530   -14.7750 ca         1 N51      -0.043000
     31 C29        -31.5630   -11.0050   -14.8950 ca         1 N51      -0.091000
     32 C3         -47.7440     5.0880   -12.6260 c2         1 N51      -0.159200
     33 C30        -32.9410   -11.0130   -15.1910 ca         1 N51      -0.131000
     34 C9         -41.4870     0.6920   -14.3830 ca         1 N51      -0.191600
     35 N2         -40.1280    -1.0160   -15.5280 ns         1 N51      -0.145000
     36 N4         -32.5540    -5.6250   -14.8400 nb         1 N51      -0.223000
     37 N5         -33.3770    -3.3640   -14.8820 nb         1 N51      -0.264000
     38 N6         -34.9390    -9.5500   -15.5450 na         1 N51      -0.213700
     39 O1         -39.1590     0.3530   -13.9500 o          1 N51      -0.578100
     40 H1         -45.9740     2.2050   -14.3330 hn         1 N51       0.152000
     41 H2         -35.3130    -1.9760   -14.8810 hn         1 N51       0.517000
     42 H3         -47.6910     3.3100   -13.7840 ha         1 N51       0.179000
     43 H4         -42.8460     3.2020   -12.5010 ha         1 N51       0.133500
     44 H5         -40.7240     2.0620   -12.8750 ha         1 N51       0.125000
     45 H6         -42.6270    -0.4920   -15.8310 ha         1 N51       0.125000
     46 H7         -38.6820    -4.2770   -18.4010 ha         1 N51       0.114000
     47 H9         -31.4130    -3.9220   -14.4920 h5         1 N51       0.043100
     48 H10        -36.1930    -7.7590   -15.7250 h4         1 N51       0.213000
     49 H11        -29.8240    -9.7820   -14.4600 ha         1 N51       0.111000
     50 H13        -49.7370     4.8090   -15.3350 h1         1 N51       0.033700
     51 H14        -49.5770     6.4410   -16.0170 h1         1 N51       0.033700
     52 H15        -48.1460     5.6080   -15.3690 h1         1 N51       0.033700
     53 H16        -49.1820     8.1350   -12.7480 h1         1 N51       0.033700
     54 H17        -47.7990     7.6560   -13.7610 h1         1 N51       0.033700
     55 H18        -49.2410     8.3840   -14.5040 h1         1 N51       0.033700
     56 H19        -44.7460     0.6650   -15.4460 ha         1 N51       0.133500
     57 H20        -40.3920    -2.7180   -17.5080 ha         1 N51       0.111000
     58 H21        -36.4140    -4.3430   -17.4000 ha         1 N51       0.128000
     59 H22        -37.5390    -1.3150   -14.5700 ha         1 N51       0.155000
     60 H23        -49.5610     5.8800   -11.8180 h1         1 N51       0.063200
     61 H24        -49.7890     4.5040   -12.8890 h1         1 N51       0.063200
     62 H25        -31.0460    -7.6230   -14.6130 ha         1 N51       0.140000
     63 H26        -31.0180   -11.9440   -14.8250 ha         1 N51       0.109000
     64 H27        -47.1850     5.8040   -12.0200 ha         1 N51       0.197000
     65 H28        -33.4720   -11.9490   -15.3520 ha         1 N51       0.111000
     66 H29        -41.0150    -1.1750   -15.9830 hn         1 N51       0.153000
     67 H30        -35.6250   -10.2760   -15.7290 hn         1 N51       0.351000
     68 C12        -40.1480     0.0050   -14.5860 c          1 N51       0.628700
     69 H8         -35.8600    -5.5520   -15.5010 ha         1 N51       0.132000
@<TRIPOS>BOND
     1     1     4 1   
     2     1     5 1   
     3     1    40 1   
     4     2    11 1   
     5     2    26 1   
     6     2    41 1   
     7     3     4 1   
     8     3    32 2   
     9     3    42 1   
    10     4    20 2   
    11     5     6 ar  
    12     5    22 ar  
    13     6     7 ar  
    14     6    43 1   
    15     7    34 ar  
    16     7    44 1   
    17     8    22 ar  
    18     8    34 ar  
    19     8    45 1   
    20     9    23 ar  
    21     9    25 ar  
    22     9    35 1   
    23    10    23 ar  
    24    10    24 ar  
    25    10    46 1   
    26    11    24 ar  
    27    11    25 ar  
    28    12    13 ar  
    29    12    26 ar  
    30    12    69 1   
    31    13    28 1   
    32    13    36 ar  
    33    14    36 ar  
    34    14    37 ar  
    35    14    47 1   
    36    15    28 2   
    37    15    38 1   
    38    15    48 1   
    39    16    28 1   
    40    16    29 ar  
    41    16    30 ar  
    42    17    30 ar  
    43    17    31 ar  
    44    17    49 1   
    45    18    19 1   
    46    18    21 1   
    47    18    27 1   
    48    19    50 1   
    49    19    51 1   
    50    19    52 1   
    51    21    53 1   
    52    21    54 1   
    53    21    55 1   
    54    22    56 1   
    55    23    57 1   
    56    24    58 1   
    57    25    59 1   
    58    26    37 ar  
    59    27    32 1   
    60    27    60 1   
    61    27    61 1   
    62    29    33 ar  
    63    29    38 1   
    64    30    62 1   
    65    31    33 ar  
    66    31    63 1   
    67    32    64 1   
    68    33    65 1   
    69    34    68 1   
    70    35    66 1   
    71    35    68 1   
    72    38    67 1   
    73    39    68 2   
@<TRIPOS>SUBSTRUCTURE
     1 N51         1 TEMP              0 ****  ****    0 ROOT
