@<TRIPOS>MOLECULE
N51
   69    73     1     0     0
SMALL
abcg2


@<TRIPOS>ATOM
      1 N1         -45.1000     2.2760   -13.8990 ns         1 N51      -0.144000
      2 N3         -35.4090    -2.5850   -15.6180 nu         1 N51      -0.952900
      3 C4         -46.9200     3.6740   -13.2960 ce         1 N51      -0.309200
      4 C5         -45.4550     3.5000   -13.4130 c          1 N51       0.613300
      5 C6         -43.8360     1.7530   -14.1420 ca         1 N51       0.013000
      6 C7         -42.6360     2.4240   -13.8870 ca         1 N51      -0.165500
      7 C8         -41.4310     1.8000   -14.1620 ca         1 N51      -0.039500
      8 C10        -42.5740    -0.1450   -14.9500 ca         1 N51      -0.039500
      9 C13        -38.9250    -1.8210   -16.3460 ca         1 N51       0.011000
     10 C15        -38.1510    -3.4710   -17.9200 ca         1 N51      -0.061000
     11 C17        -36.6620    -2.6520   -16.2350 ca         1 N51       0.331000
     12 C20        -34.8900    -4.9580   -15.4460 ca         1 N51      -0.288000
     13 C21        -33.9270    -5.8890   -15.0760 ca         1 N51       0.254800
     14 C22        -32.5530    -4.1960   -14.4730 ca         1 N51       0.163900
     15 C24        -35.2910    -7.9110   -15.7040 cc         1 N51      -0.127100
     16 C26        -33.2850    -8.3960   -14.8010 ca         1 N51      -0.056800
     17 C28        -31.4670    -9.7280   -13.9830 ca         1 N51      -0.143000
     18 N          -49.4480     6.1880   -13.4250 n3         1 N51      -0.719600
     19 C          -49.2750     6.0750   -14.8570 c3         1 N51       0.153100
     20 O          -44.6520     4.3640   -13.1050 o          1 N51      -0.575100
     21 C1         -48.9860     7.4620   -12.9170 c3         1 N51       0.153100
     22 C11        -43.7830     0.4580   -14.6690 ca         1 N51      -0.165500
     23 C14        -39.1630    -2.6620   -17.4380 ca         1 N51      -0.192000
     24 C16        -36.8920    -3.4680   -17.3390 ca         1 N51      -0.172000
     25 C18        -37.6710    -1.8270   -15.7400 ca         1 N51      -0.175000
     26 C19        -34.5710    -3.6070   -15.3030 ca         1 N51       0.385900
     27 C2         -48.9260     5.0450   -12.7000 c3         1 N51       0.190000
     28 C23        -34.1590    -7.3170   -15.1900 cd         1 N51      -0.230000
     29 C25        -33.9620    -9.5940   -15.1120 ca         1 N51      -0.063200
     30 C27        -32.0100    -8.4810   -14.2250 ca         1 N51      -0.043000
     31 C29        -32.1630   -10.9040   -14.3040 ca         1 N51      -0.091000
     32 C3         -47.4520     4.8110   -12.8510 c2         1 N51      -0.159200
     33 C30        -33.4200   -10.8540   -14.8730 ca         1 N51      -0.131000
     34 C9         -41.3730     0.5210   -14.7070 ca         1 N51      -0.191600
     35 N2         -40.0000    -1.0410   -15.9150 ns         1 N51      -0.145000
     36 N4         -32.7380    -5.4970   -14.5890 nb         1 N51      -0.223000
     37 N5         -33.3890    -3.2290   -14.7980 nb         1 N51      -0.264000
     38 N6         -35.1720    -9.2550   -15.6580 na         1 N51      -0.213700
     39 O1         -39.0490     0.2960   -14.3410 o          1 N51      -0.578100
     40 H1         -45.8630     1.6540   -14.1230 hn         1 N51       0.152000
     41 H2         -35.1170    -1.6830   -15.2710 hn         1 N51       0.517000
     42 H3         -47.5610     2.8450   -13.5800 ha         1 N51       0.179000
     43 H4         -42.6320     3.4190   -13.4760 ha         1 N51       0.133500
     44 H5         -40.5140     2.3350   -13.9530 ha         1 N51       0.125000
     45 H6         -42.5930    -1.1580   -15.3330 ha         1 N51       0.125000
     46 H7         -38.3400    -4.1040   -18.7770 ha         1 N51       0.114000
     47 H9         -31.5980    -3.8810   -14.0630 h5         1 N51       0.043100
     48 H10        -36.1840    -7.4630   -16.1090 h4         1 N51       0.213000
     49 H11        -30.4840    -9.8030   -13.5370 ha         1 N51       0.111000
     50 H13        -49.6670     5.1190   -15.2070 h1         1 N51       0.033700
     51 H14        -49.8340     6.8680   -15.3570 h1         1 N51       0.033700
     52 H15        -48.2290     6.1470   -15.1890 h1         1 N51       0.033700
     53 H16        -49.1620     7.5190   -11.8410 h1         1 N51       0.033700
     54 H17        -47.9190     7.6600   -13.0930 h1         1 N51       0.033700
     55 H18        -49.5480     8.2690   -13.3900 h1         1 N51       0.033700
     56 H19        -44.7020    -0.0850   -14.8540 ha         1 N51       0.133500
     57 H20        -40.1370    -2.6750   -17.9110 ha         1 N51       0.111000
     58 H21        -36.1010    -4.0740   -17.7580 ha         1 N51       0.128000
     59 H22        -37.4670    -1.2040   -14.8840 ha         1 N51       0.155000
     60 H23        -49.1450     5.1940   -11.6370 h1         1 N51       0.063200
     61 H24        -49.4730     4.1510   -13.0140 h1         1 N51       0.063200
     62 H25        -31.4660    -7.5820   -13.9780 ha         1 N51       0.140000
     63 H26        -31.7080   -11.8650   -14.1030 ha         1 N51       0.109000
     64 H27        -46.7890     5.6270   -12.5790 ha         1 N51       0.197000
     65 H28        -33.9630   -11.7560   -15.1210 ha         1 N51       0.111000
     66 H29        -40.8490    -1.1850   -16.4390 hn         1 N51       0.153000
     67 H30        -35.8730    -9.9030   -15.9760 hn         1 N51       0.351000
     68 C12        -40.0330    -0.0780   -14.9560 c          1 N51       0.628700
     69 H8         -35.8560    -5.2710   -15.8100 ha         1 N51       0.132000
@<TRIPOS>BOND
     1     1     4 1   
     2     1     5 1   
     3     1    40 1   
     4     2    11 1   
     5     2    26 1   
     6     2    41 1   
     7     3     4 1   
     8     3    32 2   
     9     3    42 1   
    10     4    20 2   
    11     5     6 ar  
    12     5    22 ar  
    13     6     7 ar  
    14     6    43 1   
    15     7    34 ar  
    16     7    44 1   
    17     8    22 ar  
    18     8    34 ar  
    19     8    45 1   
    20     9    23 ar  
    21     9    25 ar  
    22     9    35 1   
    23    10    23 ar  
    24    10    24 ar  
    25    10    46 1   
    26    11    24 ar  
    27    11    25 ar  
    28    12    13 ar  
    29    12    26 ar  
    30    12    69 1   
    31    13    28 1   
    32    13    36 ar  
    33    14    36 ar  
    34    14    37 ar  
    35    14    47 1   
    36    15    28 2   
    37    15    38 1   
    38    15    48 1   
    39    16    28 1   
    40    16    29 ar  
    41    16    30 ar  
    42    17    30 ar  
    43    17    31 ar  
    44    17    49 1   
    45    18    19 1   
    46    18    21 1   
    47    18    27 1   
    48    19    50 1   
    49    19    51 1   
    50    19    52 1   
    51    21    53 1   
    52    21    54 1   
    53    21    55 1   
    54    22    56 1   
    55    23    57 1   
    56    24    58 1   
    57    25    59 1   
    58    26    37 ar  
    59    27    32 1   
    60    27    60 1   
    61    27    61 1   
    62    29    33 ar  
    63    29    38 1   
    64    30    62 1   
    65    31    33 ar  
    66    31    63 1   
    67    32    64 1   
    68    33    65 1   
    69    34    68 1   
    70    35    66 1   
    71    35    68 1   
    72    38    67 1   
    73    39    68 2   
@<TRIPOS>SUBSTRUCTURE
     1 N51         1 TEMP              0 ****  ****    0 ROOT
