@<TRIPOS>MOLECULE
N53
   78    83     1     0     0
SMALL
No Charge or Current Charge


@<TRIPOS>ATOM
      1 C1          -8.3460     0.7260     1.5460 ca         1 N53       0.086100
      2 C2          -9.3800     0.0820     2.2450 ca         1 N53      -0.115000
      3 C3         -10.3890    -0.6010     1.5410 ca         1 N53      -0.098500
      4 C4         -10.3670    -0.6310     0.1360 ca         1 N53      -0.106000
      5 C5          -9.3400     0.0250    -0.5670 ca         1 N53      -0.098500
      6 C6          -8.3320     0.7070     0.1370 ca         1 N53      -0.115000
      7 C7          -4.0580     0.3060     0.9860 ca         1 N53      -0.122600
      8 C8          -5.4230     0.2780     1.3620 ca         1 N53      -0.129000
      9 C9          -6.0540     1.4250     1.8820 ca         1 N53       0.135100
     10 C10         -5.3240     2.6080     2.0550 ca         1 N53      -0.113000
     11 C11         -3.9700     2.6560     1.6890 ca         1 N53      -0.086000
     12 C12         -3.3400     1.5180     1.1560 ca         1 N53      -0.120000
     13 C13          6.5510     0.6200     1.7670 ca         1 N53      -0.078300
     14 C14          5.9930     1.3270     2.8500 ca         1 N53      -0.106500
     15 C15          6.8260     1.9650     3.7860 ca         1 N53      -0.110000
     16 C16          8.2220     1.8990     3.6450 ca         1 N53      -0.111000
     17 C17          8.7850     1.1940     2.5680 ca         1 N53      -0.110000
     18 C18          7.9520     0.5560     1.6320 ca         1 N53      -0.106500
     19 N19          3.7670     0.3910    -0.9860 n          1 N53      -0.399800
     20 C20          4.9320     0.9360    -0.2130 c6         1 N53       0.099700
     21 C21          5.9430     1.6510    -1.1590 c6         1 N53       0.131800
     22 N22          5.2850     2.7270    -1.9560 n3         1 N53      -0.715600
     23 C23          4.1270     2.1850    -2.7210 c6         1 N53       0.128800
     24 C24          3.1080     1.4480    -1.8070 c6         1 N53       0.078000
     25 C25          0.4190    -2.9750    -1.2930 cc         1 N53       0.247300
     26 C26          1.0950    -0.7440    -0.8180 c5         1 N53       0.224300
     27 N27          2.2620    -1.4640    -1.3970 n          1 N53      -0.428800
     28 C28          1.8850    -2.8990    -1.6810 c5         1 N53       0.128100
     29 N29         -0.5140    -3.9080    -1.3100 nd         1 N53      -0.483800
     30 N30         -1.6110    -3.1970    -0.7730 na         1 N53      -0.013200
     31 C31         -1.2880    -1.8620    -0.4550 cd         1 N53       0.034600
     32 C33          2.6830    -3.9370    -0.8430 c3         1 N53      -0.094100
     33 C34          3.5860    -0.9760    -1.2870 c          1 N53       0.640100
     34 O35          4.5500    -1.7040    -1.4660 o          1 N53      -0.627100
     35 C36          6.2380     3.4650    -2.8120 c3         1 N53       0.154100
     36 C37          5.6430    -0.0650     0.7510 c3         1 N53      -0.035100
     37 N38         -2.0820    -0.8640     0.0730 ns         1 N53      -0.388100
     38 O40         -4.0450    -1.9940     0.2830 o          1 N53      -0.593100
     39 O41         -7.3780     1.3980     2.2600 os         1 N53      -0.252200
     40 C42          0.0120    -1.7650    -0.7970 cc         1 N53      -0.294300
     41 H2          -9.3970     0.1070     3.3320 ha         1 N53       0.129000
     42 H6          -7.5470     1.2220    -0.4130 ha         1 N53       0.129000
     43 H3         -11.1860    -1.1040     2.0840 ha         1 N53       0.119500
     44 H4         -11.1470    -1.1580    -0.4090 ha         1 N53       0.119000
     45 H5          -9.3280     0.0070    -1.6540 ha         1 N53       0.119500
     46 H8          -5.9970    -0.6400     1.2540 ha         1 N53       0.150000
     47 H12         -2.2900     1.5990     0.8860 ha         1 N53       0.117000
     48 H10         -5.8090     3.4890     2.4680 ha         1 N53       0.135000
     49 H11         -3.4060     3.5780     1.8190 ha         1 N53       0.123000
     50 H14          4.9130     1.3830     2.9670 ha         1 N53       0.111500
     51 H18          8.3980     0.0150     0.8000 ha         1 N53       0.111500
     52 H371         6.2270    -0.7940     0.1780 hc         1 N53       0.066200
     53 H372         4.8860    -0.6450     1.2920 hc         1 N53       0.066200
     54 H15          6.3890     2.5090     4.6200 ha         1 N53       0.110500
     55 H16          8.8660     2.3920     4.3690 ha         1 N53       0.111000
     56 H17          9.8660     1.1420     2.4570 ha         1 N53       0.110500
     57 H20          4.5160     1.7170     0.4400 h1         1 N53       0.066700
     58 H241         2.3440     1.0100    -2.4610 h1         1 N53       0.060200
     59 H242         2.6140     2.1700    -1.1420 h1         1 N53       0.060200
     60 H211         6.7550     2.0800    -0.5540 h1         1 N53       0.051200
     61 H212         6.3980     0.9010    -1.8240 h1         1 N53       0.051200
     62 H231         3.6040     2.9960    -3.2480 h1         1 N53       0.039700
     63 H232         4.4810     1.4790    -3.4870 h1         1 N53       0.039700
     64 H361         6.6890     2.7990    -3.5620 h1         1 N53       0.031033
     65 H362         5.7320     4.2840    -3.3390 h1         1 N53       0.031033
     66 H363         7.0460     3.8990    -2.2080 h1         1 N53       0.031033
     67 H261         1.3100    -0.3820     0.1960 h1         1 N53       0.047200
     68 H262         0.7800     0.1050    -1.4360 h1         1 N53       0.047200
     69 H321         1.4770    -2.5080    -3.8000 hc         1 N53       0.051033
     70 H322         3.1090    -3.1200    -3.4950 hc         1 N53       0.051033
     71 H323         1.7230    -4.2210    -3.4290 hc         1 N53       0.051033
     72 H331         2.2290    -4.9330    -0.9200 hc         1 N53       0.051033
     73 H332         3.7210    -4.0410    -1.1750 hc         1 N53       0.051033
     74 H333         2.6900    -3.6620     0.2190 hc         1 N53       0.051033
     75 H30         -2.5250    -3.6280    -0.6430 hn         1 N53       0.402000
     76 H38         -1.6710     0.0450     0.2330 hn         1 N53       0.343500
     77 C39         -3.4160    -0.9510     0.4230 c          1 N53       0.624700
     78 C32          2.0600    -3.2060    -3.1880 c3         1 N53      -0.094100
@<TRIPOS>BOND
     1     1     2 ar  
     2     1     6 ar  
     3     1    39 1   
     4     2     3 ar  
     5     2    41 1   
     6     3     4 ar  
     7     3    43 1   
     8     4     5 ar  
     9     4    44 1   
    10     5     6 ar  
    11     5    45 1   
    12     6    42 1   
    13     7     8 ar  
    14     7    12 ar  
    15     7    77 1   
    16     8     9 ar  
    17     8    46 1   
    18     9    10 ar  
    19     9    39 1   
    20    10    11 ar  
    21    10    48 1   
    22    11    12 ar  
    23    11    49 1   
    24    12    47 1   
    25    13    14 ar  
    26    13    18 ar  
    27    13    36 1   
    28    14    15 ar  
    29    14    50 1   
    30    15    16 ar  
    31    15    54 1   
    32    16    17 ar  
    33    16    55 1   
    34    17    18 ar  
    35    17    56 1   
    36    18    51 1   
    37    19    20 1   
    38    19    24 1   
    39    19    33 1   
    40    20    21 1   
    41    20    36 1   
    42    20    57 1   
    43    21    22 1   
    44    21    60 1   
    45    21    61 1   
    46    22    23 1   
    47    22    35 1   
    48    23    24 1   
    49    23    62 1   
    50    23    63 1   
    51    24    58 1   
    52    24    59 1   
    53    25    28 1   
    54    25    29 2   
    55    25    40 1   
    56    26    27 1   
    57    26    40 1   
    58    26    67 1   
    59    26    68 1   
    60    27    28 1   
    61    27    33 1   
    62    28    32 1   
    63    28    78 1   
    64    29    30 1   
    65    30    31 1   
    66    30    75 1   
    67    31    37 1   
    68    31    40 2   
    69    32    72 1   
    70    32    73 1   
    71    32    74 1   
    72    33    34 2   
    73    35    64 1   
    74    35    65 1   
    75    35    66 1   
    76    36    52 1   
    77    36    53 1   
    78    37    76 1   
    79    37    77 1   
    80    38    77 2   
    81    69    78 1   
    82    70    78 1   
    83    71    78 1   
@<TRIPOS>SUBSTRUCTURE
     1 N53         1 TEMP              0 ****  ****    0 ROOT
