@<TRIPOS>MOLECULE
N53
   78    83     1     0     0
SMALL
abcg2


@<TRIPOS>ATOM
      1 C1          -8.3400     0.8400     0.9200 ca         1 N53       0.086100
      2 C2          -8.8030    -0.3840     1.3820 ca         1 N53      -0.115000
      3 C3          -9.6050    -1.1580     0.5550 ca         1 N53      -0.098500
      4 C4          -9.9380    -0.7130    -0.7180 ca         1 N53      -0.106000
      5 C5          -9.4650     0.5130    -1.1670 ca         1 N53      -0.098500
      6 C6          -8.6580     1.2950    -0.3500 ca         1 N53      -0.115000
      7 C7          -4.2330     0.1740     1.5000 ca         1 N53      -0.122600
      8 C8          -5.5830     0.3920     1.2300 ca         1 N53      -0.129000
      9 C9          -6.2820     1.3410     1.9610 ca         1 N53       0.135100
     10 C10         -5.6450     2.0590     2.9710 ca         1 N53      -0.113000
     11 C11         -4.3100     1.8210     3.2420 ca         1 N53      -0.086000
     12 C12         -3.5940     0.8810     2.5120 ca         1 N53      -0.120000
     13 C13          6.6480     0.8080     1.6400 ca         1 N53      -0.078300
     14 C14          6.2580     1.7020     2.6360 ca         1 N53      -0.106500
     15 C15          7.2020     2.3880     3.3870 ca         1 N53      -0.110000
     16 C16          8.5580     2.1930     3.1510 ca         1 N53      -0.111000
     17 C17          8.9590     1.3070     2.1610 ca         1 N53      -0.110000
     18 C18          8.0100     0.6200     1.4150 ca         1 N53      -0.106500
     19 N19          3.6770     0.5190    -0.6940 n          1 N53      -0.399800
     20 C20          4.9940     0.9760    -0.2440 c6         1 N53       0.099700
     21 C21          5.9330     1.2590    -1.4110 c6         1 N53       0.131800
     22 N22          5.3350     2.2210    -2.3190 n3         1 N53      -0.715600
     23 C23          4.0450     1.7640    -2.7920 c6         1 N53       0.128800
     24 C24          3.1030     1.4850    -1.6310 c6         1 N53       0.078000
     25 C25          0.3330    -2.5110    -1.1310 cc         1 N53       0.247300
     26 C26          1.1860    -0.5290    -0.1520 c5         1 N53       0.224300
     27 N27          2.2070    -1.2410    -0.9480 n          1 N53      -0.428800
     28 C28          1.7900    -2.5770    -1.4630 c5         1 N53       0.128100
     29 N29         -0.6880    -3.2980    -1.3730 nd         1 N53      -0.483800
     30 N30         -1.7100    -2.6750    -0.7660 na         1 N53      -0.013200
     31 C31         -1.3460    -1.5240    -0.1570 cd         1 N53       0.034600
     32 C33          2.4300    -3.7450    -0.7070 c3         1 N53      -0.094100
     33 C34          3.4990    -0.8270    -1.0110 c          1 N53       0.640100
     34 O35          4.4190    -1.5770    -1.3040 o          1 N53      -0.627100
     35 C36          6.2200     2.5370    -3.4150 c3         1 N53       0.154100
     36 C37          5.6220     0.0720     0.8220 c3         1 N53      -0.035100
     37 N38         -2.2000    -0.6870     0.5360 ns         1 N53      -0.388100
     38 O40         -4.1340    -1.7970     0.1790 o          1 N53      -0.593100
     39 O41         -7.5870     1.6450     1.7420 os         1 N53      -0.252200
     40 C42          0.0040    -1.3940    -0.3810 cc         1 N53      -0.294300
     41 H2          -8.5450    -0.7250     2.3770 ha         1 N53       0.129000
     42 H6          -8.2840     2.2520    -0.6910 ha         1 N53       0.129000
     43 H3          -9.9730    -2.1120     0.9100 ha         1 N53       0.119500
     44 H4         -10.5690    -1.3170    -1.3560 ha         1 N53       0.119000
     45 H5          -9.7210     0.8650    -2.1580 ha         1 N53       0.119500
     46 H8          -6.0650    -0.1730     0.4440 ha         1 N53       0.150000
     47 H12         -2.5590     0.6940     2.7700 ha         1 N53       0.117000
     48 H10         -6.2000     2.7970     3.5360 ha         1 N53       0.135000
     49 H11         -3.8210     2.3680     4.0360 ha         1 N53       0.123000
     50 H14          5.2040     1.8580     2.8320 ha         1 N53       0.111500
     51 H18          8.3310    -0.0740     0.6470 ha         1 N53       0.111500
     52 H371         6.0810    -0.8040     0.3630 hc         1 N53       0.066200
     53 H372         4.8250    -0.2910     1.4770 hc         1 N53       0.066200
     54 H15          6.8800     3.0720     4.1620 ha         1 N53       0.110500
     55 H16          9.2950     2.7250     3.7390 ha         1 N53       0.111000
     56 H17         10.0130     1.1460     1.9700 ha         1 N53       0.110500
     57 H20          4.7870     1.9400     0.2360 h1         1 N53       0.066700
     58 H241         2.1600     1.1160    -2.0310 h1         1 N53       0.060200
     59 H242         2.8910     2.4130    -1.0930 h1         1 N53       0.060200
     60 H211         6.8640     1.6850    -1.0260 h1         1 N53       0.051200
     61 H212         6.1930     0.3150    -1.9150 h1         1 N53       0.051200
     62 H231         3.6020     2.5410    -3.4200 h1         1 N53       0.039700
     63 H232         4.1300     0.8570    -3.4180 h1         1 N53       0.039700
     64 H361         6.4400     1.6700    -4.0600 h1         1 N53       0.031033
     65 H362         5.7780     3.3130    -4.0420 h1         1 N53       0.031033
     66 H363         7.1690     2.9160    -3.0340 h1         1 N53       0.031033
     67 H261         1.4840    -0.4700     0.8990 h1         1 N53       0.047200
     68 H262         1.0220     0.4910    -0.5000 h1         1 N53       0.047200
     69 H321         1.5610    -1.8620    -3.4980 hc         1 N53       0.051033
     70 H322         3.0790    -2.7270    -3.2110 hc         1 N53       0.051033
     71 H323         1.5650    -3.6200    -3.3310 hc         1 N53       0.051033
     72 H331         1.9540    -4.6760    -1.0150 hc         1 N53       0.051033
     73 H332         3.4950    -3.8220    -0.9110 hc         1 N53       0.051033
     74 H333         2.2890    -3.6360     0.3690 hc         1 N53       0.051033
     75 H30         -2.6420    -3.0560    -0.8110 hn         1 N53       0.402000
     76 H38         -1.7770     0.1580     0.8870 hn         1 N53       0.343500
     77 C39         -3.5380    -0.8600     0.6840 c          1 N53       0.624700
     78 C32          2.0180    -2.6980    -2.9670 c3         1 N53      -0.094100
@<TRIPOS>BOND
     1     1     2 ar  
     2     1     6 ar  
     3     1    39 1   
     4     2     3 ar  
     5     2    41 1   
     6     3     4 ar  
     7     3    43 1   
     8     4     5 ar  
     9     4    44 1   
    10     5     6 ar  
    11     5    45 1   
    12     6    42 1   
    13     7     8 ar  
    14     7    12 ar  
    15     7    77 1   
    16     8     9 ar  
    17     8    46 1   
    18     9    10 ar  
    19     9    39 1   
    20    10    11 ar  
    21    10    48 1   
    22    11    12 ar  
    23    11    49 1   
    24    12    47 1   
    25    13    14 ar  
    26    13    18 ar  
    27    13    36 1   
    28    14    15 ar  
    29    14    50 1   
    30    15    16 ar  
    31    15    54 1   
    32    16    17 ar  
    33    16    55 1   
    34    17    18 ar  
    35    17    56 1   
    36    18    51 1   
    37    19    20 1   
    38    19    24 1   
    39    19    33 1   
    40    20    21 1   
    41    20    36 1   
    42    20    57 1   
    43    21    22 1   
    44    21    60 1   
    45    21    61 1   
    46    22    23 1   
    47    22    35 1   
    48    23    24 1   
    49    23    62 1   
    50    23    63 1   
    51    24    58 1   
    52    24    59 1   
    53    25    28 1   
    54    25    29 2   
    55    25    40 1   
    56    26    27 1   
    57    26    40 1   
    58    26    67 1   
    59    26    68 1   
    60    27    28 1   
    61    27    33 1   
    62    28    32 1   
    63    28    78 1   
    64    29    30 1   
    65    30    31 1   
    66    30    75 1   
    67    31    37 1   
    68    31    40 2   
    69    32    72 1   
    70    32    73 1   
    71    32    74 1   
    72    33    34 2   
    73    35    64 1   
    74    35    65 1   
    75    35    66 1   
    76    36    52 1   
    77    36    53 1   
    78    37    76 1   
    79    37    77 1   
    80    38    77 2   
    81    69    78 1   
    82    70    78 1   
    83    71    78 1   
@<TRIPOS>SUBSTRUCTURE
     1 N53         1 TEMP              0 ****  ****    0 ROOT
