@<TRIPOS>MOLECULE
N55
   37    39     1     0     0
SMALL
No Charge or Current Charge


@<TRIPOS>ATOM
      1 C10        -11.0480    17.2450     3.3150 ca         1 N55      -0.108300
      2 N12         -9.2530    19.0300     3.1320 na         1 N55      -0.168500
      3 C13         -8.7600    19.7330     4.2120 cc         1 N55      -0.229000
      4 C17         -9.0310    16.9490     1.8270 c2         1 N55      -0.243200
      5 C20        -13.3920    17.8590     3.6570 ca         1 N55      -0.102500
      6 C21        -16.0630    16.8810     4.7700 ca         1 N55      -0.053000
      7 C22        -17.4050    16.5140     4.9730 ca         1 N55      -0.202000
      8 C02        -17.9240    15.3650     4.3550 ca         1 N55       0.154100
      9 C03        -17.0910    14.5810     3.5290 ca         1 N55       0.077000
     10 C05        -15.7500    14.9500     3.3300 ca         1 N55      -0.056000
     11 C06        -15.2070    16.1070     3.9450 cp         1 N55      -0.070000
     12 C07        -13.7780    16.4980     3.7300 cp         1 N55      -0.018000
     13 C08        -12.7620    15.5210     3.5940 ca         1 N55      -0.102500
     14 C09        -11.4210    15.8890     3.3930 ca         1 N55      -0.090000
     15 C11         -9.5660    17.5890     3.0960 c3         1 N55       0.171800
     16 C14         -8.6290    21.0270     3.7820 cd         1 N55       0.224900
     17 C16         -9.3980    19.9270     2.0930 cc         1 N55       0.390400
     18 C19        -12.0520    18.2300     3.4540 ca         1 N55      -0.090000
     19 N15         -9.0270    21.1450     2.4660 nd         1 N55      -0.675000
     20 O01        -19.2320    15.0230     4.5620 oh         1 N55      -0.512100
     21 Cl1        -17.7070    13.1320     2.7300 cl         1 N55      -0.180000
     22 H131        -8.5470    19.2820     5.1730 h4         1 N55       0.159000
     23 H171        -9.6020    17.1900     0.9280 ha         1 N55       0.186000
     24 H201       -14.1430    18.6400     3.7450 ha         1 N55       0.119000
     25 H211       -15.6790    17.7670     5.2700 ha         1 N55       0.120000
     26 H221       -18.0340    17.1270     5.6150 ha         1 N55       0.119000
     27 H051       -15.1300    14.3390     2.6790 ha         1 N55       0.132000
     28 H081       -13.0120    14.4650     3.6600 ha         1 N55       0.119000
     29 H091       -10.6660    15.1110     3.2970 ha         1 N55       0.120500
     30 H111        -9.0240    17.1420     3.9400 h1         1 N55       0.068700
     31 H141        -8.2720    21.8800     4.3470 h4         1 N55       0.036100
     32 H161        -9.7750    19.6380     1.1190 h5         1 N55       0.055100
     33 H181        -7.6510    15.6870     0.8080 ha         1 N55       0.170000
     34 H182        -7.3900    15.8520     2.6390 ha         1 N55       0.170000
     35 H191       -11.8110    19.2880     3.4080 ha         1 N55       0.120500
     36 H011       -19.6360    15.6880     5.1590 ho         1 N55       0.470000
     37 C18         -7.9730    16.1220     1.7560 c2         1 N55      -0.283000
@<TRIPOS>BOND
     1     1    14 ar  
     2     1    15 1   
     3     1    18 ar  
     4     2     3 1   
     5     2    15 1   
     6     2    17 1   
     7     3    16 2   
     8     3    22 1   
     9     4    15 1   
    10     4    23 1   
    11     4    37 2   
    12     5    12 ar  
    13     5    18 ar  
    14     5    24 1   
    15     6     7 ar  
    16     6    11 ar  
    17     6    25 1   
    18     7     8 ar  
    19     7    26 1   
    20     8     9 ar  
    21     8    20 1   
    22     9    10 ar  
    23     9    21 1   
    24    10    11 ar  
    25    10    27 1   
    26    11    12 1   
    27    12    13 ar  
    28    13    14 ar  
    29    13    28 1   
    30    14    29 1   
    31    15    30 1   
    32    16    19 1   
    33    16    31 1   
    34    17    19 2   
    35    17    32 1   
    36    18    35 1   
    37    20    36 1   
    38    33    37 1   
    39    34    37 1   
@<TRIPOS>SUBSTRUCTURE
     1 N55         1 TEMP              0 ****  ****    0 ROOT
