@<TRIPOS>MOLECULE
N55
   37    39     1     0     0
SMALL
bcc


@<TRIPOS>ATOM
      1 C10        -11.0100    17.2140     3.2310 ca         1 N55      -0.108300
      2 N12         -9.2440    18.9140     3.2610 na         1 N55      -0.189900
      3 C13         -9.4910    19.4930     4.4760 cc         1 N55      -0.261600
      4 C17         -9.3350    17.2990     1.4310 c2         1 N55      -0.193200
      5 C20        -13.3630    17.7330     3.1560 ca         1 N55      -0.120500
      6 C21        -16.0210    17.0600     4.4470 ca         1 N55      -0.071000
      7 C22        -17.3390    16.7020     4.6750 ca         1 N55      -0.220000
      8 C02        -17.7710    15.3980     4.4520 ca         1 N55       0.154100
      9 C03        -16.8350    14.4670     4.0010 ca         1 N55      -0.014600
     10 C05        -15.5180    14.8220     3.7780 ca         1 N55      -0.074000
     11 C06        -15.0860    16.1300     3.9960 cp         1 N55      -0.070000
     12 C07        -13.6820    16.5060     3.7440 cp         1 N55      -0.018000
     13 C08        -12.6360    15.6470     4.0780 ca         1 N55      -0.120500
     14 C09        -11.3190    15.9970     3.8240 ca         1 N55      -0.108000
     15 C11         -9.5710    17.5400     2.8950 c3         1 N55       0.142500
     16 C14         -8.9520    20.7440     4.4020 cd         1 N55       0.290200
     17 C16         -8.5700    19.8250     2.5230 cc         1 N55       0.390400
     18 C19        -12.0470    18.0810     2.9010 ca         1 N55      -0.108000
     19 N15         -8.3800    20.9410     3.1770 nd         1 N55      -0.675000
     20 O01        -19.0320    14.9890     4.6450 oh         1 N55      -0.473100
     21 CL1        -17.3500    12.8430     3.6990 cl         1 N55      -0.088400
     22 H131       -10.0170    18.9810     5.2650 h4         1 N55       0.177000
     23 H171        -9.9450    17.8760     0.7430 ha         1 N55       0.136000
     24 H201       -14.1540    18.4150     2.8710 ha         1 N55       0.137000
     25 H211       -15.7180    18.0800     4.6450 ha         1 N55       0.138000
     26 H221       -18.0420    17.4440     5.0350 ha         1 N55       0.137000
     27 H051       -14.8290    14.0730     3.4090 ha         1 N55       0.150000
     28 H081       -12.8460    14.7010     4.5610 ha         1 N55       0.137000
     29 H091       -10.5230    15.3150     4.0980 ha         1 N55       0.138500
     30 H111        -8.9190    16.8750     3.4680 h1         1 N55       0.068700
     31 H141        -8.9490    21.5080     5.1650 h4         1 N55       0.036100
     32 H161        -8.2370    19.6220     1.5170 h5         1 N55       0.055100
     33 H181        -8.3610    16.2200    -0.0870 ha         1 N55       0.120000
     34 H182        -7.8610    15.8070     1.6410 ha         1 N55       0.120000
     35 H191       -11.8340    19.0350     2.4340 ha         1 N55       0.138500
     36 H011       -19.5810    15.7180     4.9580 ho         1 N55       0.431000
     37 C18         -8.4760    16.3990     0.9740 c2         1 N55      -0.183000
@<TRIPOS>BOND
     1     1    14 ar  
     2     1    15 1   
     3     1    18 ar  
     4     2     3 1   
     5     2    15 1   
     6     2    17 1   
     7     3    16 2   
     8     3    22 1   
     9     4    15 1   
    10     4    23 1   
    11     4    37 2   
    12     5    12 ar  
    13     5    18 ar  
    14     5    24 1   
    15     6     7 ar  
    16     6    11 ar  
    17     6    25 1   
    18     7     8 ar  
    19     7    26 1   
    20     8     9 ar  
    21     8    20 1   
    22     9    10 ar  
    23     9    21 1   
    24    10    11 ar  
    25    10    27 1   
    26    11    12 1   
    27    12    13 ar  
    28    13    14 ar  
    29    13    28 1   
    30    14    29 1   
    31    15    30 1   
    32    16    19 1   
    33    16    31 1   
    34    17    19 2   
    35    17    32 1   
    36    18    35 1   
    37    20    36 1   
    38    33    37 1   
    39    34    37 1   
@<TRIPOS>SUBSTRUCTURE
     1 N55         1 TEMP              0 ****  ****    0 ROOT
