@<TRIPOS>MOLECULE
N56
   44    47     1     0     0
SMALL
No Charge or Current Charge


@<TRIPOS>ATOM
      1 Cl2         -0.7630     1.6880    -3.0690 cl         1 N56      -0.194000
      2 C16         -1.7360     1.5580    -1.6100 ca         1 N56       0.125500
      3 C17         -2.5790     2.6150    -1.2340 ca         1 N56      -0.097000
      4 C           -3.3490     2.5090    -0.0660 ca         1 N56       0.125500
      5 Cl          -4.4060     3.8330     0.4090 cl         1 N56      -0.194000
      6 C15         -1.6650     0.3980    -0.8220 ca         1 N56      -0.095500
      7 C2          -2.4310     0.2870     0.3580 ca         1 N56      -0.073300
      8 C1          -3.2760     1.3530     0.7300 ca         1 N56      -0.095500
      9 C3          -2.3320    -0.9620     1.2280 c3         1 N56       0.220100
     10 N           -0.9160    -1.2710     1.4780 n7         1 N56      -0.895400
     11 C4          -0.5530    -2.4370     2.3330 c6         1 N56       0.156500
     12 C8           0.9840    -2.4520     2.6450 c6         1 N56       0.214800
     13 N1           1.7700    -2.6550     1.3860 nh         1 N56      -0.709600
     14 C7           1.4700    -3.9750     0.7690 c6         1 N56       0.205800
     15 C6          -0.0390    -4.0770     0.4200 c6         1 N56      -0.102400
     16 C5          -0.9320    -3.7890     1.6600 c6         1 N56      -0.074400
     17 C9           2.0720    -1.5650     0.6040 cc         1 N56       0.687700
     18 N4           2.1700    -1.5840    -0.7770 na         1 N56      -0.342600
     19 C14          2.4160    -0.3060    -1.1630 ca         1 N56      -0.148200
     20 C10          2.4850     0.4560    -0.0230 ca         1 N56       0.523000
     21 N2           2.2880    -0.3360     1.0970 nd         1 N56      -0.716700
     22 C13          2.5700     0.2340    -2.4430 ca         1 N56      -0.055000
     23 C12          2.8050     1.6200    -2.4830 ca         1 N56      -0.164000
     24 C11          2.8650     2.3410    -1.2690 ca         1 N56       0.445000
     25 N3           2.7120     1.7770    -0.0460 nb         1 N56      -0.620000
     26 Cl1          3.1490     4.0740    -1.2890 cl         1 N56      -0.179000
     27 H1          -2.6350     3.5120    -1.8450 ha         1 N56       0.145000
     28 H2          -1.0040    -0.4120    -1.1220 ha         1 N56       0.140000
     29 H3          -3.8750     1.2880     1.6350 ha         1 N56       0.140000
     30 H4          -2.8600    -0.7930     2.1770 h1         1 N56       0.039200
     31 H5          -2.8310    -1.7920     0.7110 h1         1 N56       0.039200
     32 H6          -0.4780    -0.4300     1.8700 hn         1 N56       0.442000
     33 H8          -1.0950    -2.3490     3.2860 h1         1 N56       0.032700
     34 H9           1.2650    -1.5180     3.1520 h1         1 N56       0.076200
     35 H10          1.1960    -3.2640     3.3560 h1         1 N56       0.076200
     36 H11          2.0760    -4.1440    -0.1320 h1         1 N56       0.052700
     37 H12          1.7290    -4.7790     1.4740 h1         1 N56       0.052700
     38 H13         -0.2810    -3.3660    -0.3820 hc         1 N56       0.055200
     39 H14         -0.2600    -5.0770     0.0240 hc         1 N56       0.055200
     40 H15         -0.8020    -4.6000     2.3910 hc         1 N56       0.045700
     41 H16         -1.9930    -3.8070     1.3790 hc         1 N56       0.045700
     42 H17          2.0350    -2.3940    -1.3630 hn         1 N56       0.357000
     43 H19          2.5090    -0.3720    -3.3450 ha         1 N56       0.123000
     44 H20          2.9340     2.1350    -3.4300 ha         1 N56       0.137000
@<TRIPOS>BOND
     1     1     2 1   
     2     2     3 ar  
     3     2     6 ar  
     4     3     4 ar  
     5     3    27 1   
     6     4     5 1   
     7     4     8 ar  
     8     6     7 ar  
     9     6    28 1   
    10     7     8 ar  
    11     7     9 1   
    12     8    29 1   
    13     9    10 1   
    14     9    30 1   
    15     9    31 1   
    16    10    11 1   
    17    10    32 1   
    18    11    12 1   
    19    11    16 1   
    20    11    33 1   
    21    12    13 1   
    22    12    34 1   
    23    12    35 1   
    24    13    14 1   
    25    13    17 1   
    26    14    15 1   
    27    14    36 1   
    28    14    37 1   
    29    15    16 1   
    30    15    38 1   
    31    15    39 1   
    32    16    40 1   
    33    16    41 1   
    34    17    18 1   
    35    17    21 2   
    36    18    19 1   
    37    18    42 1   
    38    19    20 ar  
    39    19    22 ar  
    40    20    21 1   
    41    20    25 ar  
    42    22    23 ar  
    43    22    43 1   
    44    23    24 ar  
    45    23    44 1   
    46    24    25 ar  
    47    24    26 1   
@<TRIPOS>SUBSTRUCTURE
     1 N56         1 TEMP              0 ****  ****    0 ROOT
