@<TRIPOS>MOLECULE
N56
   44    47     1     0     0
SMALL
abcg2


@<TRIPOS>ATOM
      1 CL2         -0.2990     2.2510    -2.2410 cl         1 N56      -0.194000
      2 C16         -1.5840     1.7620    -1.1890 ca         1 N56       0.125500
      3 C17         -2.7740     2.4710    -1.1980 ca         1 N56      -0.097000
      4 C           -3.7710     2.0520    -0.3300 ca         1 N56       0.125500
      5 CL          -5.2720     2.9150    -0.3070 cl         1 N56      -0.194000
      6 C15         -1.3830     0.6750    -0.3570 ca         1 N56      -0.095500
      7 C2          -2.3950     0.2760     0.5100 ca         1 N56      -0.073300
      8 C1          -3.5970     0.9760     0.5230 ca         1 N56      -0.095500
      9 C3          -2.2090    -0.9180     1.4140 c3         1 N56       0.220100
     10 N           -0.8100    -1.1740     1.6470 n7         1 N56      -0.895400
     11 C4          -0.4620    -2.3390     2.4380 c6         1 N56       0.156500
     12 C8           1.0680    -2.4070     2.5020 c6         1 N56       0.214800
     13 N1           1.6260    -2.6280     1.1770 nh         1 N56      -0.709600
     14 C7           1.1650    -3.8680     0.5720 c6         1 N56       0.205800
     15 C6          -0.3530    -3.9020     0.4530 c6         1 N56      -0.102400
     16 C5          -0.9850    -3.6350     1.8160 c6         1 N56      -0.074400
     17 C9           1.9550    -1.5580     0.4300 cc         1 N56       0.687700
     18 N4           2.0850    -1.6130    -0.9290 na         1 N56      -0.342600
     19 C14          2.4820    -0.3680    -1.3490 ca         1 N56      -0.148200
     20 C10          2.5630     0.3930    -0.1650 ca         1 N56       0.523000
     21 N2           2.2410    -0.3620     0.9160 nd         1 N56      -0.716700
     22 C13          2.7770     0.1960    -2.5660 ca         1 N56      -0.055000
     23 C12          3.1460     1.5400    -2.5460 ca         1 N56      -0.164000
     24 C11          3.1840     2.1970    -1.3240 ca         1 N56       0.445000
     25 N3           2.9110     1.6720    -0.1500 nb         1 N56      -0.620000
     26 CL1          3.6380     3.8820    -1.3120 cl         1 N56      -0.179000
     27 H1          -2.9170     3.3210    -1.8500 ha         1 N56       0.145000
     28 H2          -0.4460     0.1380    -0.3710 ha         1 N56       0.140000
     29 H3          -4.3910     0.6830     1.1980 ha         1 N56       0.140000
     30 H4          -2.7940    -0.7670     2.3340 h1         1 N56       0.039200
     31 H5          -2.6550    -1.7820     0.9140 h1         1 N56       0.039200
     32 H6          -0.3830    -0.3560     2.0620 hn         1 N56       0.442000
     33 H8          -0.8350    -2.2740     3.4720 h1         1 N56       0.032700
     34 H9           1.4870    -1.4950     2.9250 h1         1 N56       0.076200
     35 H10          1.3720    -3.2360     3.1460 h1         1 N56       0.076200
     36 H11          1.6530    -4.0420    -0.3860 h1         1 N56       0.052700
     37 H12          1.5000    -4.6830     1.2210 h1         1 N56       0.052700
     38 H13         -0.6860    -3.1600    -0.2770 hc         1 N56       0.055200
     39 H14         -0.6600    -4.8800     0.0780 hc         1 N56       0.055200
     40 H15         -0.7370    -4.4520     2.5000 hc         1 N56       0.045700
     41 H16         -2.0740    -3.6320     1.7450 hc         1 N56       0.045700
     42 H17          1.9090    -2.4020    -1.5280 hn         1 N56       0.357000
     43 H19          2.7280    -0.3550    -3.4960 ha         1 N56       0.123000
     44 H20          3.3900     2.0590    -3.4610 ha         1 N56       0.137000
@<TRIPOS>BOND
     1     1     2 1   
     2     2     3 ar  
     3     2     6 ar  
     4     3     4 ar  
     5     3    27 1   
     6     4     5 1   
     7     4     8 ar  
     8     6     7 ar  
     9     6    28 1   
    10     7     8 ar  
    11     7     9 1   
    12     8    29 1   
    13     9    10 1   
    14     9    30 1   
    15     9    31 1   
    16    10    11 1   
    17    10    32 1   
    18    11    12 1   
    19    11    16 1   
    20    11    33 1   
    21    12    13 1   
    22    12    34 1   
    23    12    35 1   
    24    13    14 1   
    25    13    17 1   
    26    14    15 1   
    27    14    36 1   
    28    14    37 1   
    29    15    16 1   
    30    15    38 1   
    31    15    39 1   
    32    16    40 1   
    33    16    41 1   
    34    17    18 1   
    35    17    21 2   
    36    18    19 1   
    37    18    42 1   
    38    19    20 ar  
    39    19    22 ar  
    40    20    21 1   
    41    20    25 ar  
    42    22    23 ar  
    43    22    43 1   
    44    23    24 ar  
    45    23    44 1   
    46    24    25 ar  
    47    24    26 1   
@<TRIPOS>SUBSTRUCTURE
     1 N56         1 TEMP              0 ****  ****    0 ROOT
