@<TRIPOS>MOLECULE
N57
   82    82     1     0     0
SMALL
No Charge or Current Charge


@<TRIPOS>ATOM
      1 C17         15.9000     1.8560     0.1360 c3         1 N57      -0.088100
      2 C16         14.8020     0.7800     0.2390 c3         1 N57      -0.075400
      3 C15         13.3770     1.3510     0.0680 c3         1 N57      -0.075400
      4 C14         12.2770     0.2720     0.1720 c3         1 N57      -0.074400
      5 C13         10.8520     0.8430     0.0000 c3         1 N57      -0.073400
      6 C12          9.7520    -0.2360     0.1050 c3         1 N57      -0.074400
      7 C11          8.3270     0.3360    -0.0670 c3         1 N57      -0.073400
      8 C10          7.2270    -0.7430     0.0380 c3         1 N57      -0.074400
      9 C9           5.8020    -0.1720    -0.1340 c3         1 N57      -0.073400
     10 C8           4.7020    -1.2500    -0.0290 c3         1 N57      -0.074400
     11 C7           3.2770    -0.6790    -0.2000 c3         1 N57      -0.073400
     12 C6           2.1770    -1.7580    -0.0940 c3         1 N57      -0.075400
     13 C5           0.7520    -1.1870    -0.2640 c3         1 N57      -0.071400
     14 C4          -0.3490    -2.2710    -0.1570 c3         1 N57      -0.109400
     15 C3          -1.7980    -1.7220    -0.2690 c3         1 N57       0.139300
     16 O32         -1.9620    -1.1130    -1.5590 oh         1 N57      -0.643000
     17 C2          -2.8950    -2.8230    -0.0640 c3         1 N57       0.094300
     18 O1          -2.7690    -3.4480     1.2360 oh         1 N57      -0.659000
     19 C1          -4.3690    -2.3290    -0.2780 c3         1 N57       0.134500
     20 N           -5.3110    -3.4800    -0.1200 n8         1 N57      -0.970200
     21 C           -4.7660    -1.1260     0.6380 c3         1 N57       0.170600
     22 OC1         -6.0800    -0.6690     0.2610 os         1 N57      -0.450000
     23 CG1         -6.6660     0.3510     1.0920 c6         1 N57       0.357300
     24 OG          -5.8880     1.5670     1.0160 os         1 N57      -0.460000
     25 CG          -5.8710     2.1970    -0.2960 c6         1 N57       0.169300
     26 CG5         -4.9000     3.4230    -0.2550 c3         1 N57       0.171600
     27 OG6         -3.5490     3.0740     0.1140 oh         1 N57      -0.717000
     28 CG4         -7.3160     2.5920    -0.7450 c6         1 N57       0.147300
     29 OG5         -7.9100     3.6010     0.1000 oh         1 N57      -0.717000
     30 CG3         -8.2100     1.3170    -0.7230 c6         1 N57       0.139300
     31 OG4         -9.5750     1.6540    -1.0450 oh         1 N57      -0.675000
     32 CG2         -8.1520     0.6050     0.6660 c6         1 N57       0.119300
     33 OG3         -8.9080    -0.6300     0.6170 oh         1 N57      -0.707000
     34 H1          15.8710     2.3470    -0.8440 hc         1 N57       0.031367
     35 H2          15.7690     2.6200     0.9110 hc         1 N57       0.031367
     36 H3          16.8910     1.4040     0.2640 hc         1 N57       0.031367
     37 H4          14.9810     0.0130    -0.5250 hc         1 N57       0.036700
     38 H5          14.8800     0.2840     1.2150 hc         1 N57       0.036700
     39 H6          13.2030     2.1180     0.8320 hc         1 N57       0.036700
     40 H7          13.3040     1.8480    -0.9080 hc         1 N57       0.036700
     41 H8          12.4520    -0.4960    -0.5930 hc         1 N57       0.036700
     42 H9          12.3510    -0.2250     1.1470 hc         1 N57       0.036700
     43 H10         10.6780     1.6110     0.7650 hc         1 N57       0.037200
     44 H11         10.7780     1.3400    -0.9750 hc         1 N57       0.037200
     45 H12          9.9270    -1.0030    -0.6600 hc         1 N57       0.036700
     46 H13          9.8260    -0.7320     1.0800 hc         1 N57       0.036700
     47 H14          8.1530     1.1030     0.6970 hc         1 N57       0.037700
     48 H15          8.2540     0.8320    -1.0430 hc         1 N57       0.037700
     49 H16          7.4020    -1.5110    -0.7270 hc         1 N57       0.036700
     50 H17          7.3010    -1.2400     1.0130 hc         1 N57       0.036700
     51 H18          5.6280     0.5960     0.6310 hc         1 N57       0.037700
     52 H19          5.7280     0.3250    -1.1090 hc         1 N57       0.037700
     53 H20          4.8760    -2.0180    -0.7930 hc         1 N57       0.036700
     54 H21          4.7760    -1.7470     0.9470 hc         1 N57       0.036700
     55 H22          3.1030     0.0890     0.5650 hc         1 N57       0.038700
     56 H23          3.2030    -0.1830    -1.1750 hc         1 N57       0.038700
     57 H24          2.3510    -2.5250    -0.8590 hc         1 N57       0.036700
     58 H25          2.2530    -2.2550     0.8810 hc         1 N57       0.036700
     59 H26          0.5780    -0.4210     0.5010 hc         1 N57       0.045700
     60 H27          0.6840    -0.6860    -1.2380 hc         1 N57       0.045700
     61 H28         -0.1860    -3.0340    -0.9290 hc         1 N57       0.048200
     62 H29         -0.2330    -2.7780     0.8090 hc         1 N57       0.048200
     63 H30         -1.9250    -0.9600     0.5140 h1         1 N57       0.077700
     64 H31         -1.4970    -1.6820    -2.2100 ho         1 N57       0.438000
     65 H32         -2.7100    -3.5870    -0.8320 h1         1 N57       0.064700
     66 H33         -2.7530    -2.7390     1.9150 ho         1 N57       0.446000
     67 H34         -4.4560    -1.9700    -1.3150 h1         1 N57       0.082700
     68 H35         -5.1490    -4.1500    -0.8790 hn         1 N57       0.393500
     69 H36         -5.0100    -4.0010     0.7120 hn         1 N57       0.393500
     70 H38         -4.7540    -1.4440     1.6890 h1         1 N57       0.033700
     71 H39         -4.0410    -0.3120     0.5170 h1         1 N57       0.033700
     72 H40         -6.6660    -0.0020     2.1340 h2         1 N57       0.063700
     73 H41         -5.4600     1.4830    -1.0250 h1         1 N57       0.066700
     74 H42         -4.9070     3.8950    -1.2470 h1         1 N57       0.036200
     75 H43         -5.3020     4.1580     0.4560 h1         1 N57       0.036200
     76 H44         -3.0470     3.9170     0.1960 ho         1 N57       0.503000
     77 H45         -7.2660     2.9590    -1.7810 h1         1 N57       0.049700
     78 H46         -8.8810     3.5070    -0.0600 ho         1 N57       0.520000
     79 H47         -7.8120     0.6200    -1.4780 h1         1 N57       0.070700
     80 H48        -10.1040     0.8680    -0.7740 ho         1 N57       0.468000
     81 H49         -8.5950     1.2760     1.4170 h1         1 N57       0.060700
     82 H50         -8.2690    -1.3240     0.3230 ho         1 N57       0.510000
@<TRIPOS>BOND
     1     1     2 1   
     2     1    34 1   
     3     1    35 1   
     4     1    36 1   
     5     2     3 1   
     6     2    37 1   
     7     2    38 1   
     8     3     4 1   
     9     3    39 1   
    10     3    40 1   
    11     4     5 1   
    12     4    41 1   
    13     4    42 1   
    14     5     6 1   
    15     5    43 1   
    16     5    44 1   
    17     6     7 1   
    18     6    45 1   
    19     6    46 1   
    20     7     8 1   
    21     7    47 1   
    22     7    48 1   
    23     8     9 1   
    24     8    49 1   
    25     8    50 1   
    26     9    10 1   
    27     9    51 1   
    28     9    52 1   
    29    10    11 1   
    30    10    53 1   
    31    10    54 1   
    32    11    12 1   
    33    11    55 1   
    34    11    56 1   
    35    12    13 1   
    36    12    57 1   
    37    12    58 1   
    38    13    14 1   
    39    13    59 1   
    40    13    60 1   
    41    14    15 1   
    42    14    61 1   
    43    14    62 1   
    44    15    16 1   
    45    15    17 1   
    46    15    63 1   
    47    16    64 1   
    48    17    18 1   
    49    17    19 1   
    50    17    65 1   
    51    18    66 1   
    52    19    20 1   
    53    19    21 1   
    54    19    67 1   
    55    20    68 1   
    56    20    69 1   
    57    21    22 1   
    58    21    70 1   
    59    21    71 1   
    60    22    23 1   
    61    23    24 1   
    62    23    32 1   
    63    23    72 1   
    64    24    25 1   
    65    25    26 1   
    66    25    28 1   
    67    25    73 1   
    68    26    27 1   
    69    26    74 1   
    70    26    75 1   
    71    27    76 1   
    72    28    29 1   
    73    28    30 1   
    74    28    77 1   
    75    29    78 1   
    76    30    31 1   
    77    30    32 1   
    78    30    79 1   
    79    31    80 1   
    80    32    33 1   
    81    32    81 1   
    82    33    82 1   
@<TRIPOS>SUBSTRUCTURE
     1 N57         1 TEMP              0 ****  ****    0 ROOT
