@<TRIPOS>MOLECULE
N57
   82    82     1     0     0
SMALL
abcg2


@<TRIPOS>ATOM
      1 C17         15.8010     1.6290    -0.0590 c3         1 N57      -0.088100
      2 C16         14.6820     0.5970    -0.0560 c3         1 N57      -0.075400
      3 C15         13.2950     1.2270    -0.0300 c3         1 N57      -0.075400
      4 C14         12.1680     0.2010    -0.0270 c3         1 N57      -0.074400
      5 C13         10.7790     0.8270    -0.0020 c3         1 N57      -0.073400
      6 C12          9.6580    -0.2050     0.0030 c3         1 N57      -0.074400
      7 C11          8.2650     0.4110     0.0230 c3         1 N57      -0.073400
      8 C10          7.1520    -0.6290     0.0290 c3         1 N57      -0.074400
      9 C9           5.7530    -0.0240     0.0380 c3         1 N57      -0.073400
     10 C8           4.6500    -1.0740     0.0460 c3         1 N57      -0.074400
     11 C7           3.2450    -0.4840     0.0330 c3         1 N57      -0.073400
     12 C6           2.1550    -1.5470     0.0460 c3         1 N57      -0.075400
     13 C5           0.7430    -0.9750    -0.0090 c3         1 N57      -0.071400
     14 C4          -0.3210    -2.0640     0.0210 c3         1 N57      -0.109400
     15 C3          -1.7520    -1.5460    -0.0880 c3         1 N57       0.139300
     16 O32         -1.9680    -0.8560    -1.3010 oh         1 N57      -0.643000
     17 C2          -2.7710    -2.6850     0.0990 c3         1 N57       0.094300
     18 O1          -2.6780    -3.2320     1.4000 oh         1 N57      -0.659000
     19 C1          -4.2270    -2.3270    -0.2660 c3         1 N57       0.134500
     20 N           -5.1200    -3.4730    -0.1890 n8         1 N57      -0.970200
     21 C           -4.7670    -1.1920     0.5900 c3         1 N57       0.170600
     22 OC1         -6.0090    -0.7760     0.0630 os         1 N57      -0.450000
     23 CG1         -6.6940     0.1340     0.8540 c6         1 N57       0.357300
     24 OG          -6.0030     1.3420     1.0190 os         1 N57      -0.460000
     25 CG          -5.7770     2.0660    -0.1800 c6         1 N57       0.169300
     26 CG5         -4.9420     3.2810     0.1610 c3         1 N57       0.171600
     27 OG6         -3.6630     2.8470     0.5590 oh         1 N57      -0.717000
     28 CG4         -7.0900     2.4290    -0.8590 c6         1 N57       0.147300
     29 OG5         -7.7880     3.3450    -0.0520 oh         1 N57      -0.717000
     30 CG3         -7.8930     1.1520    -1.0930 c6         1 N57       0.139300
     31 OG4         -9.1330     1.5190    -1.6510 oh         1 N57      -0.675000
     32 CG2         -8.0630     0.3970     0.2190 c6         1 N57       0.119300
     33 OG3         -8.7740    -0.7850    -0.0490 oh         1 N57      -0.707000
     34 H1          15.7340     2.2800    -0.9330 hc         1 N57       0.031367
     35 H2          15.7530     2.2640     0.8280 hc         1 N57       0.031367
     36 H3          16.7840     1.1570    -0.0740 hc         1 N57       0.031367
     37 H4          14.7710    -0.0450    -0.9380 hc         1 N57       0.036700
     38 H5          14.7940    -0.0640     0.8090 hc         1 N57       0.036700
     39 H6          13.2050     1.8700     0.8530 hc         1 N57       0.036700
     40 H7          13.1820     1.8890    -0.8970 hc         1 N57       0.036700
     41 H8          12.2610    -0.4420    -0.9090 hc         1 N57       0.036700
     42 H9          12.2830    -0.4600     0.8400 hc         1 N57       0.036700
     43 H10         10.6850     1.4700     0.8800 hc         1 N57       0.037200
     44 H11         10.6630     1.4860    -0.8690 hc         1 N57       0.037200
     45 H12          9.7560    -0.8500    -0.8780 hc         1 N57       0.036700
     46 H13          9.7760    -0.8640     0.8710 hc         1 N57       0.036700
     47 H14          8.1650     1.0570     0.9030 hc         1 N57       0.037700
     48 H15          8.1460     1.0670    -0.8470 hc         1 N57       0.037700
     49 H16          7.2590    -1.2790    -0.8470 hc         1 N57       0.036700
     50 H17          7.2700    -1.2810     0.9020 hc         1 N57       0.036700
     51 H18          5.6440     0.6270     0.9130 hc         1 N57       0.037700
     52 H19          5.6330     0.6250    -0.8370 hc         1 N57       0.037700
     53 H20          4.7710    -1.7330    -0.8220 hc         1 N57       0.036700
     54 H21          4.7660    -1.7160     0.9270 hc         1 N57       0.036700
     55 H22          3.1200     0.1790     0.8970 hc         1 N57       0.038700
     56 H23          3.1270     0.1500    -0.8530 hc         1 N57       0.038700
     57 H24          2.3000    -2.2240    -0.8040 hc         1 N57       0.036700
     58 H25          2.2620    -2.1670     0.9430 hc         1 N57       0.036700
     59 H26          0.5930    -0.2940     0.8360 hc         1 N57       0.045700
     60 H27          0.6360    -0.3680    -0.9130 hc         1 N57       0.045700
     61 H28         -0.1430    -2.7770    -0.7950 hc         1 N57       0.048200
     62 H29         -0.2220    -2.6390     0.9450 hc         1 N57       0.048200
     63 H30         -1.9130    -0.7990     0.7010 h1         1 N57       0.077700
     64 H31         -1.7510    -1.4510    -2.0270 ho         1 N57       0.438000
     65 H32         -2.4830    -3.5020    -0.5760 h1         1 N57       0.064700
     66 H33         -2.7420    -2.5200     2.0460 ho         1 N57       0.446000
     67 H34         -4.2220    -1.9840    -1.3040 h1         1 N57       0.082700
     68 H35         -4.8100    -4.1810    -0.8440 hn         1 N57       0.393500
     69 H36         -5.0360    -3.8980     0.7280 hn         1 N57       0.393500
     70 H38         -4.8960    -1.5240     1.6310 h1         1 N57       0.033700
     71 H39         -4.0560    -0.3590     0.6010 h1         1 N57       0.033700
     72 H40         -6.8190    -0.2600     1.8750 h2         1 N57       0.063700
     73 H41         -5.2080     1.4580    -0.8970 h1         1 N57       0.066700
     74 H42         -4.8950     3.9190    -0.7310 h1         1 N57       0.036200
     75 H43         -5.4360     3.8640     0.9480 h1         1 N57       0.036200
     76 H44         -3.1600     3.6200     0.8310 ho         1 N57       0.503000
     77 H45         -6.8490     2.8690    -1.8390 h1         1 N57       0.049700
     78 H46         -8.6590     3.4810    -0.4410 ho         1 N57       0.520000
     79 H47         -7.3230     0.5240    -1.7940 h1         1 N57       0.070700
     80 H48         -9.6990     0.7400    -1.6660 ho         1 N57       0.468000
     81 H49         -8.6170     1.0390     0.9160 h1         1 N57       0.060700
     82 H50         -9.1540    -1.1140     0.7710 ho         1 N57       0.510000
@<TRIPOS>BOND
     1     1     2 1   
     2     1    34 1   
     3     1    35 1   
     4     1    36 1   
     5     2     3 1   
     6     2    37 1   
     7     2    38 1   
     8     3     4 1   
     9     3    39 1   
    10     3    40 1   
    11     4     5 1   
    12     4    41 1   
    13     4    42 1   
    14     5     6 1   
    15     5    43 1   
    16     5    44 1   
    17     6     7 1   
    18     6    45 1   
    19     6    46 1   
    20     7     8 1   
    21     7    47 1   
    22     7    48 1   
    23     8     9 1   
    24     8    49 1   
    25     8    50 1   
    26     9    10 1   
    27     9    51 1   
    28     9    52 1   
    29    10    11 1   
    30    10    53 1   
    31    10    54 1   
    32    11    12 1   
    33    11    55 1   
    34    11    56 1   
    35    12    13 1   
    36    12    57 1   
    37    12    58 1   
    38    13    14 1   
    39    13    59 1   
    40    13    60 1   
    41    14    15 1   
    42    14    61 1   
    43    14    62 1   
    44    15    16 1   
    45    15    17 1   
    46    15    63 1   
    47    16    64 1   
    48    17    18 1   
    49    17    19 1   
    50    17    65 1   
    51    18    66 1   
    52    19    20 1   
    53    19    21 1   
    54    19    67 1   
    55    20    68 1   
    56    20    69 1   
    57    21    22 1   
    58    21    70 1   
    59    21    71 1   
    60    22    23 1   
    61    23    24 1   
    62    23    32 1   
    63    23    72 1   
    64    24    25 1   
    65    25    26 1   
    66    25    28 1   
    67    25    73 1   
    68    26    27 1   
    69    26    74 1   
    70    26    75 1   
    71    27    76 1   
    72    28    29 1   
    73    28    30 1   
    74    28    77 1   
    75    29    78 1   
    76    30    31 1   
    77    30    32 1   
    78    30    79 1   
    79    31    80 1   
    80    32    33 1   
    81    32    81 1   
    82    33    82 1   
@<TRIPOS>SUBSTRUCTURE
     1 N57         1 TEMP              0 ****  ****    0 ROOT
