@<TRIPOS>MOLECULE
N58
   50    52     1     0     0
SMALL
No Charge or Current Charge


@<TRIPOS>ATOM
      1 O1           1.4290    -1.1860    -0.4360 o          1 N58      -0.582100
      2 C9           1.3150     0.0250    -0.3120 c          1 N58       0.676100
      3 N3           2.3810     0.8690    -0.0580 ns         1 N58      -0.417100
      4 C8           3.7300     0.5580     0.1020 cc         1 N58       0.006600
      5 C7           4.3380    -0.6600     0.0490 cd         1 N58      -0.223000
      6 C2           5.7180    -0.4590     0.2730 cd         1 N58       0.280300
      7 C3           6.7860    -1.5540     0.3000 c3         1 N58      -0.072300
      8 C6           6.4390    -2.5710     1.4190 c3         1 N58      -0.080100
      9 C5           6.8010    -2.2820    -1.0700 c3         1 N58      -0.080100
     10 C4           8.2110    -0.9860     0.5730 c3         1 N58      -0.080100
     11 N2           6.0050     0.8200     0.4640 nc         1 N58      -0.518800
     12 N1           4.7760     1.4420     0.3580 na         1 N58       0.089800
     13 C1           4.6720     2.9010     0.5130 c3         1 N58       0.068900
     14 N4           0.1160     0.7170    -0.4040 ns         1 N58      -0.161000
     15 C10         -1.2180     0.2920    -0.6530 ca         1 N58       0.027000
     16 C20         -1.5800    -1.0490    -0.9090 ca         1 N58      -0.172000
     17 C19         -2.9220    -1.3920    -1.1470 ca         1 N58      -0.026500
     18 C13         -3.9190    -0.4020    -1.1300 ca         1 N58      -0.184000
     19 C12         -3.5670     0.9360    -0.8820 ca         1 N58      -0.026500
     20 C11         -2.2240     1.2760    -0.6450 ca         1 N58      -0.172000
     21 S           -5.6260    -0.8530    -1.4340 ss         1 N58       0.073000
     22 C14         -6.4190    -0.0420    -0.0470 ca         1 N58      -0.068000
     23 C18         -5.8950    -0.1290     1.2550 ca         1 N58      -0.165000
     24 C17         -6.5590     0.5240     2.3070 ca         1 N58       0.344400
     25 N5          -7.6950     1.2390     2.1320 nb         1 N58      -0.669000
     26 C16         -8.2010     1.3170     0.8780 ca         1 N58       0.344400
     27 C15         -7.6010     0.6950    -0.2300 ca         1 N58      -0.165000
     28 H1           2.1200     1.8440     0.0180 hn         1 N58       0.318500
     29 H2           3.8670    -1.6180    -0.1320 ha         1 N58       0.167000
     30 H3           5.4630    -3.0390     1.2410 hc         1 N58       0.036589
     31 H4           7.1890    -3.3700     1.4720 hc         1 N58       0.036589
     32 H5           6.4020    -2.0750     2.3970 hc         1 N58       0.036589
     33 H6           7.0230    -1.5780    -1.8810 hc         1 N58       0.036589
     34 H7           7.5610    -3.0730    -1.0880 hc         1 N58       0.036589
     35 H8           5.8300    -2.7450    -1.2830 hc         1 N58       0.036589
     36 H9           8.2520    -0.4740     1.5430 hc         1 N58       0.036589
     37 H10          8.9570    -1.7900     0.5880 hc         1 N58       0.036589
     38 H11          8.5060    -0.2710    -0.2040 hc         1 N58       0.036589
     39 H12          4.0060     3.1320     1.3530 h1         1 N58       0.053367
     40 H13          5.6620     3.3320     0.7090 h1         1 N58       0.053367
     41 H14          4.2650     3.3380    -0.4060 h1         1 N58       0.053367
     42 H15          0.2000     1.7150    -0.2700 hn         1 N58       0.148000
     43 H16         -0.8400    -1.8420    -0.9310 ha         1 N58       0.134000
     44 H17         -3.1880    -2.4290    -1.3430 ha         1 N58       0.130500
     45 H18         -4.3300     1.7120    -0.8740 ha         1 N58       0.130500
     46 H19         -1.9670     2.3160    -0.4530 ha         1 N58       0.134000
     47 H20         -4.9880    -0.6920     1.4560 ha         1 N58       0.130500
     48 H21         -6.1700     0.4720     3.3240 h4         1 N58       0.018100
     49 H22         -9.1170     1.8960     0.7600 h4         1 N58       0.018100
     50 H23         -8.0510     0.7920    -1.2140 ha         1 N58       0.130500
@<TRIPOS>BOND
     1     1     2 2   
     2     2     3 1   
     3     2    14 1   
     4     3     4 1   
     5     3    28 1   
     6     4     5 2   
     7     4    12 1   
     8     5     6 1   
     9     5    29 1   
    10     6     7 1   
    11     6    11 2   
    12     7     8 1   
    13     7     9 1   
    14     7    10 1   
    15     8    30 1   
    16     8    31 1   
    17     8    32 1   
    18     9    33 1   
    19     9    34 1   
    20     9    35 1   
    21    10    36 1   
    22    10    37 1   
    23    10    38 1   
    24    11    12 1   
    25    12    13 1   
    26    13    39 1   
    27    13    40 1   
    28    13    41 1   
    29    14    15 1   
    30    14    42 1   
    31    15    16 ar  
    32    15    20 ar  
    33    16    17 ar  
    34    16    43 1   
    35    17    18 ar  
    36    17    44 1   
    37    18    19 ar  
    38    18    21 1   
    39    19    20 ar  
    40    19    45 1   
    41    20    46 1   
    42    21    22 1   
    43    22    23 ar  
    44    22    27 ar  
    45    23    24 ar  
    46    23    47 1   
    47    24    25 ar  
    48    24    48 1   
    49    25    26 ar  
    50    26    27 ar  
    51    26    49 1   
    52    27    50 1   
@<TRIPOS>SUBSTRUCTURE
     1 N58         1 TEMP              0 ****  ****    0 ROOT
