@<TRIPOS>MOLECULE
N58
   50    52     1     0     0
SMALL
bcc


@<TRIPOS>ATOM
      1 O1           1.3250    -0.7540    -0.5700 o          1 N58      -0.582100
      2 C9           1.3330     0.4460    -0.3830 c          1 N58       0.810100
      3 N3           2.4730     1.1460    -0.0820 ns         1 N58      -0.484100
      4 C8           3.7240     0.5710     0.0370 cc         1 N58       0.057300
      5 C7           4.1530    -0.7230     0.2450 cd         1 N58      -0.306300
      6 C2           5.5580    -0.6160     0.3030 cd         1 N58       0.345600
      7 C3           6.5420    -1.7390     0.5050 c3         1 N58      -0.072300
      8 C6           6.1970    -2.4860     1.7990 c3         1 N58      -0.080100
      9 C5           6.4410    -2.7130    -0.6760 c3         1 N58      -0.080100
     10 C4           7.9710    -1.2080     0.5990 c3         1 N58      -0.080100
     11 N2           5.9460     0.6320     0.1460 nc         1 N58      -0.518800
     12 N1           4.8250     1.3470    -0.0290 na         1 N58       0.068400
     13 C1           4.8860     2.7780    -0.1970 c3         1 N58       0.039600
     14 N4           0.2270     1.2510    -0.4420 ns         1 N58      -0.487100
     15 C10         -1.0860     0.8920    -0.7210 ca         1 N58       0.119600
     16 C20         -1.5360    -0.4190    -0.8940 ca         1 N58      -0.190000
     17 C19         -2.8750    -0.6570    -1.1640 ca         1 N58      -0.044500
     18 C13         -3.7850     0.3860    -1.2640 ca         1 N58      -0.057100
     19 C12         -3.3380     1.6940    -1.0950 ca         1 N58      -0.044500
     20 C11         -2.0070     1.9420    -0.8240 ca         1 N58      -0.190000
     21 S           -5.4780     0.0640    -1.6490 ss         1 N58      -0.180800
     22 C14         -6.2470    -0.0090    -0.0680 ca         1 N58       0.058900
     23 C18         -5.5700     0.0790     1.1420 ca         1 N58      -0.248300
     24 C17         -6.3050     0.0020     2.3160 ca         1 N58       0.409700
     25 N5          -7.6220    -0.1520     2.3620 nb         1 N58      -0.669000
     26 C16         -8.2590    -0.2370     1.1980 ca         1 N58       0.409700
     27 C15         -7.6310    -0.1730    -0.0340 ca         1 N58      -0.248300
     28 H1           2.4050     2.1390     0.0820 hn         1 N58       0.318500
     29 H2           3.5470    -1.6060     0.3440 ha         1 N58       0.185000
     30 H3           5.1920    -2.9090     1.7660 hc         1 N58       0.036589
     31 H4           6.8970    -3.3090     1.9590 hc         1 N58       0.036589
     32 H5           6.2510    -1.8250     2.6660 hc         1 N58       0.036589
     33 H6           6.6770    -2.2180    -1.6190 hc         1 N58       0.036589
     34 H7           7.1420    -3.5400    -0.5450 hc         1 N58       0.036589
     35 H8           5.4390    -3.1370    -0.7630 hc         1 N58       0.036589
     36 H9           8.0890    -0.5090     1.4270 hc         1 N58       0.036589
     37 H10          8.6630    -2.0370     0.7600 hc         1 N58       0.036589
     38 H11          8.2740    -0.6950    -0.3150 hc         1 N58       0.036589
     39 H12          4.5580     3.3040     0.7010 h1         1 N58       0.053367
     40 H13          5.9170     3.0470    -0.4010 h1         1 N58       0.053367
     41 H14          4.2740     3.0970    -1.0390 h1         1 N58       0.053367
     42 H15          0.3690     2.2420    -0.3080 hn         1 N58       0.314500
     43 H16         -0.8600    -1.2550    -0.8230 ha         1 N58       0.152000
     44 H17         -3.2080    -1.6790    -1.2950 ha         1 N58       0.148500
     45 H18         -4.0310     2.5210    -1.1730 ha         1 N58       0.148500
     46 H19         -1.6750     2.9650    -0.6930 ha         1 N58       0.152000
     47 H20         -4.4970     0.2020     1.1900 ha         1 N58       0.148500
     48 H21         -5.7900     0.0700     3.2680 h4         1 N58       0.018100
     49 H22         -9.3350    -0.3610     1.2400 h4         1 N58       0.018100
     50 H23         -8.2150    -0.2490    -0.9410 ha         1 N58       0.148500
@<TRIPOS>BOND
     1     1     2 2   
     2     2     3 1   
     3     2    14 1   
     4     3     4 1   
     5     3    28 1   
     6     4     5 2   
     7     4    12 1   
     8     5     6 1   
     9     5    29 1   
    10     6     7 1   
    11     6    11 2   
    12     7     8 1   
    13     7     9 1   
    14     7    10 1   
    15     8    30 1   
    16     8    31 1   
    17     8    32 1   
    18     9    33 1   
    19     9    34 1   
    20     9    35 1   
    21    10    36 1   
    22    10    37 1   
    23    10    38 1   
    24    11    12 1   
    25    12    13 1   
    26    13    39 1   
    27    13    40 1   
    28    13    41 1   
    29    14    15 1   
    30    14    42 1   
    31    15    16 ar  
    32    15    20 ar  
    33    16    17 ar  
    34    16    43 1   
    35    17    18 ar  
    36    17    44 1   
    37    18    19 ar  
    38    18    21 1   
    39    19    20 ar  
    40    19    45 1   
    41    20    46 1   
    42    21    22 1   
    43    22    23 ar  
    44    22    27 ar  
    45    23    24 ar  
    46    23    47 1   
    47    24    25 ar  
    48    24    48 1   
    49    25    26 ar  
    50    26    27 ar  
    51    26    49 1   
    52    27    50 1   
@<TRIPOS>SUBSTRUCTURE
     1 N58         1 TEMP              0 ****  ****    0 ROOT
