@<TRIPOS>MOLECULE
N59
   53    56     1     0     0
SMALL
abcg2


@<TRIPOS>ATOM
      1 F33         23.4830    14.6010   -31.8270 f          1 N59      -0.191000
      2 C31         23.0320    13.3460   -31.5970 ca         1 N59       0.129000
      3 C30         23.7960    12.4960   -30.8170 ca         1 N59      -0.110000
      4 C29         23.3260    11.2090   -30.5800 ca         1 N59      -0.105000
      5 C28         22.1130    10.7880   -31.1130 ca         1 N59      -0.010000
      6 C32         21.8200    12.9720   -32.1430 ca         1 N59      -0.068000
      7 C26         21.3740    11.6780   -31.8870 ca         1 N59      -0.287500
      8 S24         19.7610    11.2070   -32.4520 sy         1 N59       1.173600
      9 O25         19.3340    12.1430   -33.4610 o          1 N59      -0.543000
     10 O27         19.7860     9.7970   -32.7420 o          1 N59      -0.543000
     11 N23         18.7440    11.4530   -31.1810 nu         1 N59      -0.864100
     12 C15         18.8600    10.8010   -29.9240 ca         1 N59       0.234000
     13 C16         18.9430     9.4200   -29.7970 ca         1 N59      -0.093000
     14 C17         18.9770     8.8250   -28.5380 ca         1 N59      -0.108600
     15 C20         19.0840     7.3060   -28.4070 c          1 N59       0.702600
     16 O22         19.3020     6.6580   -29.4620 o          1 N59      -0.708500
     17 O21         18.9490     6.8250   -27.2540 o          1 N59      -0.708500
     18 C18         18.8970     9.6350   -27.4050 ca         1 N59      -0.085000
     19 C19         18.8180    11.0160   -27.5280 ca         1 N59      -0.147000
     20 C14         18.8070    11.6210   -28.7830 ca         1 N59       0.162000
     21 N11         18.7620    13.0310   -28.9750 nh         1 N59      -0.793400
     22 C10         20.1010    13.6390   -28.9770 c6         1 N59       0.170300
     23 C09         20.0040    15.1490   -29.0550 c6         1 N59       0.214800
     24 C12         17.7860    13.7920   -28.1740 c6         1 N59       0.170300
     25 C13         18.4330    14.7440   -27.1760 c6         1 N59       0.214800
     26 N08         19.3200    15.6670   -27.8730 nh         1 N59      -0.838400
     27 C01         19.6290    16.8980   -27.3580 ca         1 N59       0.365000
     28 C06         19.2500    17.2550   -26.0460 ca         1 N59      -0.197000
     29 C05         19.5680    18.5100   -25.5570 ca         1 N59       0.177000
     30 CL7         19.0810    18.9080   -23.9130 cl         1 N59      -0.238000
     31 C04         20.2620    19.4570   -26.2960 ca         1 N59      -0.172000
     32 C03         20.6390    19.0980   -27.5880 ca         1 N59      -0.058000
     33 C02         20.3360    17.8550   -28.1190 ca         1 N59      -0.196000
     34 H1          24.7370    12.8390   -30.4070 ha         1 N59       0.127000
     35 H2          23.9110    10.5290   -29.9760 ha         1 N59       0.127000
     36 H3          21.7510     9.7870   -30.9320 ha         1 N59       0.163000
     37 H4          21.2400    13.6650   -32.7340 ha         1 N59       0.149000
     38 H5          18.5580    12.4480   -31.0410 hn         1 N59       0.501000
     39 H6          18.9750     8.7960   -30.6750 ha         1 N59       0.168000
     40 H8          18.9080     9.1710   -26.4290 ha         1 N59       0.138000
     41 H9          18.7770    11.6370   -26.6420 ha         1 N59       0.091000
     42 H10         20.6600    13.2720   -29.8340 h1         1 N59       0.053950
     43 H11         20.6650    13.3590   -28.0770 h1         1 N59       0.053950
     44 H12         21.0170    15.5500   -29.0960 h1         1 N59       0.048200
     45 H13         19.4920    15.4450   -29.9790 h1         1 N59       0.048200
     46 H14         17.1570    14.3780   -28.8510 h1         1 N59       0.053950
     47 H15         17.1340    13.1030   -27.6400 h1         1 N59       0.053950
     48 H16         17.6370    15.3090   -26.6890 h1         1 N59       0.048200
     49 H17         18.9640    14.1840   -26.3960 h1         1 N59       0.048200
     50 H18         18.7360    16.5550   -25.4060 ha         1 N59       0.129000
     51 H19         20.4950    20.4280   -25.8850 ha         1 N59       0.124000
     52 H20         21.1760    19.8130   -28.2000 ha         1 N59       0.109000
     53 H21         20.6270    17.6330   -29.1350 ha         1 N59       0.118000
@<TRIPOS>BOND
     1     1     2 1   
     2     2     3 ar  
     3     2     6 ar  
     4     3     4 ar  
     5     3    34 1   
     6     4     5 ar  
     7     4    35 1   
     8     5     7 ar  
     9     5    36 1   
    10     6     7 ar  
    11     6    37 1   
    12     7     8 1   
    13     8     9 2   
    14     8    10 2   
    15     8    11 1   
    16    11    12 1   
    17    11    38 1   
    18    12    13 ar  
    19    12    20 ar  
    20    13    14 ar  
    21    13    39 1   
    22    14    15 1   
    23    14    18 ar  
    24    15    16 1   
    25    15    17 1   
    26    18    19 ar  
    27    18    40 1   
    28    19    20 ar  
    29    19    41 1   
    30    20    21 1   
    31    21    22 1   
    32    21    24 1   
    33    22    23 1   
    34    22    42 1   
    35    22    43 1   
    36    23    26 1   
    37    23    44 1   
    38    23    45 1   
    39    24    25 1   
    40    24    46 1   
    41    24    47 1   
    42    25    26 1   
    43    25    48 1   
    44    25    49 1   
    45    26    27 1   
    46    27    28 ar  
    47    27    33 ar  
    48    28    29 ar  
    49    28    50 1   
    50    29    30 1   
    51    29    31 ar  
    52    31    32 ar  
    53    31    51 1   
    54    32    33 ar  
    55    32    52 1   
    56    33    53 1   
@<TRIPOS>SUBSTRUCTURE
     1 N59         1 TEMP              0 ****  ****    0 ROOT
