@<TRIPOS>MOLECULE
N59
   53    56     1     0     0
SMALL
No Charge or Current Charge


@<TRIPOS>ATOM
      1 F33         23.1140    14.9620   -31.2790 f          1 N59      -0.191000
      2 C31         22.7330    13.6660   -31.2820 ca         1 N59       0.129000
      3 C30         23.6030    12.6830   -30.7830 ca         1 N59      -0.110000
      4 C29         23.2010    11.3350   -30.7720 ca         1 N59      -0.105000
      5 C28         21.9320    10.9710   -31.2590 ca         1 N59      -0.010000
      6 C32         21.4650    13.3120   -31.7700 ca         1 N59      -0.068000
      7 C26         21.0590    11.9580   -31.7630 ca         1 N59      -0.287500
      8 S24         19.4220    11.4940   -32.3450 sy         1 N59       1.173600
      9 O25         18.8350    12.5890   -33.1200 o          1 N59      -0.543000
     10 O27         19.4230    10.1060   -32.8160 o          1 N59      -0.543000
     11 N23         18.4820    11.4640   -30.9610 nu         1 N59      -0.864100
     12 C15         18.7390    10.6830   -29.8370 ca         1 N59       0.234000
     13 C16         18.6090     9.2840   -29.8690 ca         1 N59      -0.093000
     14 C17         18.8910     8.5030   -28.7240 ca         1 N59      -0.108600
     15 C20         18.7480     6.9890   -28.7620 c          1 N59       0.702600
     16 O22         18.3560     6.4660   -29.7960 o          1 N59      -0.708500
     17 O21         19.0270     6.3490   -27.7580 o          1 N59      -0.708500
     18 C18         19.3070     9.1620   -27.5430 ca         1 N59      -0.085000
     19 C19         19.4340    10.5610   -27.5070 ca         1 N59      -0.147000
     20 C14         19.1470    11.3330   -28.6450 ca         1 N59       0.162000
     21 N11         19.2900    12.7460   -28.6040 nh         1 N59      -0.793400
     22 C10         20.6100    13.3560   -28.2450 c6         1 N59       0.170300
     23 C09         20.6600    14.8990   -28.5020 c6         1 N59       0.214800
     24 C12         18.0990    13.6180   -28.3250 c6         1 N59       0.170300
     25 C13         18.3930    14.8270   -27.3690 c6         1 N59       0.214800
     26 N08         19.5720    15.6550   -27.7960 nh         1 N59      -0.838400
     27 C01         19.7090    17.0220   -27.4520 ca         1 N59       0.365000
     28 C06         19.0580    17.5500   -26.3220 ca         1 N59      -0.197000
     29 C05         19.2010    18.9040   -25.9890 ca         1 N59       0.177000
     30 Cl7         18.3850    19.5450   -24.5700 cl         1 N59      -0.238000
     31 C04         19.9930    19.7490   -26.7790 ca         1 N59      -0.172000
     32 C03         20.6480    19.2360   -27.9090 ca         1 N59      -0.058000
     33 C02         20.5040    17.8780   -28.2410 ca         1 N59      -0.196000
     34 H1          24.5810    12.9660   -30.4040 ha         1 N59       0.127000
     35 H2          23.8710    10.5720   -30.3830 ha         1 N59       0.127000
     36 H3          21.6300     9.9240   -31.2350 ha         1 N59       0.163000
     37 H4          20.8040    14.0920   -32.1440 ha         1 N59       0.149000
     38 H5          18.5460    12.4350   -30.6810 hn         1 N59       0.501000
     39 H6          18.2840     8.8070   -30.7890 ha         1 N59       0.168000
     40 H8          19.5330     8.5890   -26.6460 ha         1 N59       0.138000
     41 H9          19.7500    11.0470   -26.5880 ha         1 N59       0.091000
     42 H10         21.4120    12.8790   -28.8260 h1         1 N59       0.053950
     43 H11         20.8300    13.1740   -27.1830 h1         1 N59       0.053950
     44 H12         21.6450    15.2650   -28.1800 h1         1 N59       0.048200
     45 H13         20.5860    15.0760   -29.5850 h1         1 N59       0.048200
     46 H14         17.7100    14.0160   -29.2730 h1         1 N59       0.053950
     47 H15         17.2910    13.0190   -27.8800 h1         1 N59       0.053950
     48 H16         17.4870    15.4500   -27.3260 h1         1 N59       0.048200
     49 H17         18.5660    14.4370   -26.3550 h1         1 N59       0.048200
     50 H18         18.4500    16.9140   -25.6880 ha         1 N59       0.129000
     51 H19         20.1000    20.7980   -26.5150 ha         1 N59       0.124000
     52 H20         21.2620    19.8880   -28.5270 ha         1 N59       0.109000
     53 H21         21.0070    17.4970   -29.1240 ha         1 N59       0.118000
@<TRIPOS>BOND
     1     1     2 1   
     2     2     3 ar  
     3     2     6 ar  
     4     3     4 ar  
     5     3    34 1   
     6     4     5 ar  
     7     4    35 1   
     8     5     7 ar  
     9     5    36 1   
    10     6     7 ar  
    11     6    37 1   
    12     7     8 1   
    13     8     9 2   
    14     8    10 2   
    15     8    11 1   
    16    11    12 1   
    17    11    38 1   
    18    12    13 ar  
    19    12    20 ar  
    20    13    14 ar  
    21    13    39 1   
    22    14    15 1   
    23    14    18 ar  
    24    15    16 1   
    25    15    17 1   
    26    18    19 ar  
    27    18    40 1   
    28    19    20 ar  
    29    19    41 1   
    30    20    21 1   
    31    21    22 1   
    32    21    24 1   
    33    22    23 1   
    34    22    42 1   
    35    22    43 1   
    36    23    26 1   
    37    23    44 1   
    38    23    45 1   
    39    24    25 1   
    40    24    46 1   
    41    24    47 1   
    42    25    26 1   
    43    25    48 1   
    44    25    49 1   
    45    26    27 1   
    46    27    28 ar  
    47    27    33 ar  
    48    28    29 ar  
    49    28    50 1   
    50    29    30 1   
    51    29    31 ar  
    52    31    32 ar  
    53    31    51 1   
    54    32    33 ar  
    55    32    52 1   
    56    33    53 1   
@<TRIPOS>SUBSTRUCTURE
     1 N59         1 TEMP              0 ****  ****    0 ROOT
