@<TRIPOS>MOLECULE
N5A
   40    42     1     0     0
SMALL
No Charge or Current Charge


@<TRIPOS>ATOM
      1 N53          4.8410     3.1110    -0.2190 n8         1 N5A      -0.992200
      2 C52          3.9820     1.9060    -0.2710 c3         1 N5A       0.132800
      3 C51          4.1580     0.9930     0.9700 c3         1 N5A       0.097000
      4 N5           3.3500    -0.2310     0.8940 ns         1 N5A      -0.496900
      5 C5           1.9770    -0.2770     1.0440 c          1 N5A       0.606100
      6 O5           1.3030     0.7110     1.3060 o          1 N5A      -0.593100
      7 C4           1.4970    -1.7550     0.8850 c5         1 N5A       0.079300
      8 O4           0.0900    -1.9230     1.2360 os         1 N5A      -0.418000
      9 C3           1.6370    -2.1960    -0.6150 c5         1 N5A       0.095300
     10 O3           2.7780    -3.0460    -0.8360 oh         1 N5A      -0.713000
     11 C2           0.3080    -2.9720    -0.8670 c5         1 N5A       0.099300
     12 O2           0.4620    -4.3340    -0.4350 oh         1 N5A      -0.702000
     13 C1          -0.6760    -2.1470     0.0310 c5         1 N5A       0.320300
     14 N9          -1.1780    -0.8580    -0.4710 na         1 N5A      -0.311300
     15 C8          -0.9290    -0.2920    -1.7310 cc         1 N5A       0.420700
     16 N7          -1.5620     0.8870    -1.8760 nd         1 N5A      -0.558100
     17 C7          -2.2320     1.0450    -0.6600 ca         1 N5A      -0.095600
     18 C9          -2.0110    -0.0040     0.1970 ca         1 N5A       0.118500
     19 N3          -2.5690    -0.0590     1.4230 nb         1 N5A      -0.223000
     20 C10         -3.3540     0.9930     1.7590 ca         1 N5A       0.179900
     21 N1          -3.6320     2.0760     0.9930 nb         1 N5A      -0.303000
     22 C6          -3.0680     2.0950    -0.2250 ca         1 N5A       0.448900
     23 N6          -3.3480     3.1780    -0.9980 nv         1 N5A      -1.063900
     24 H531         5.8280     2.8280    -0.2700 hn         1 N5A       0.397500
     25 H532         4.7070     3.6570    -1.0800 hn         1 N5A       0.397500
     26 H521         2.9350     2.2280    -0.3440 h1         1 N5A       0.031200
     27 H522         4.2300     1.3380    -1.1790 h1         1 N5A       0.031200
     28 H511         5.2130     0.7050     1.0640 h1         1 N5A       0.066200
     29 H512         3.8790     1.5490     1.8750 h1         1 N5A       0.066200
     30 HN5          3.8160    -1.1070     0.6790 hn         1 N5A       0.315500
     31 H4           2.0970    -2.3870     1.5530 h1         1 N5A       0.079700
     32 H3           1.6890    -1.3090    -1.2640 h1         1 N5A       0.074700
     33 HO3          3.0510    -2.9510    -1.7820 ho         1 N5A       0.523000
     34 H2           0.0110    -2.9440    -1.9250 h1         1 N5A       0.079700
     35 HO2          1.4460    -4.4370    -0.3650 ho         1 N5A       0.523000
     36 H1          -1.5710    -2.7410     0.2580 h2         1 N5A       0.128700
     37 H8          -0.3050    -0.7680    -2.4790 h5         1 N5A       0.098800
     38 H6          -3.8090     0.9650     2.7480 h5         1 N5A       0.046100
     39 HN61        -2.7620     3.3130    -1.8190 hn         1 N5A       0.506000
     40 HN62        -3.6920     4.0190    -0.5410 hn         1 N5A       0.506000
@<TRIPOS>BOND
     1     1     2 1   
     2     1    24 1   
     3     1    25 1   
     4     2     3 1   
     5     2    26 1   
     6     2    27 1   
     7     3     4 1   
     8     3    28 1   
     9     3    29 1   
    10     4     5 1   
    11     4    30 1   
    12     5     6 2   
    13     5     7 1   
    14     7     8 1   
    15     7     9 1   
    16     7    31 1   
    17     8    13 1   
    18     9    10 1   
    19     9    11 1   
    20     9    32 1   
    21    10    33 1   
    22    11    12 1   
    23    11    13 1   
    24    11    34 1   
    25    12    35 1   
    26    13    14 1   
    27    13    36 1   
    28    14    15 1   
    29    14    18 1   
    30    15    16 2   
    31    15    37 1   
    32    16    17 1   
    33    17    18 ar  
    34    17    22 ar  
    35    18    19 ar  
    36    19    20 ar  
    37    20    21 ar  
    38    20    38 1   
    39    21    22 ar  
    40    22    23 1   
    41    23    39 1   
    42    23    40 1   
@<TRIPOS>SUBSTRUCTURE
     1 N5A         1 TEMP              0 ****  ****    0 ROOT
