@<TRIPOS>MOLECULE
N5A
   40    42     1     0     0
SMALL
bcc


@<TRIPOS>ATOM
      1 N53          7.2600     1.4760    -0.5490 n8         1 N5A      -0.881800
      2 C52          6.1740     0.5200    -0.4280 c3         1 N5A       0.132800
      3 C51          5.0340     1.1430     0.3660 c3         1 N5A       0.097000
      4 N5           3.9740     0.1820     0.5770 ns         1 N5A      -0.563900
      5 C5           2.6690     0.4520     0.4850 c          1 N5A       0.673100
      6 O5           2.2050     1.5550     0.2380 o          1 N5A      -0.593100
      7 C4           1.7750    -0.7680     0.6490 c5         1 N5A       0.056100
      8 O4           0.6170    -0.4120     1.3740 os         1 N5A      -0.371600
      9 C3           1.2630    -1.2840    -0.6990 c5         1 N5A       0.072100
     10 O3           2.1950    -2.1550    -1.2660 oh         1 N5A      -0.590800
     11 C2          -0.0480    -1.9590    -0.2740 c5         1 N5A       0.076100
     12 O2           0.1990    -3.2110     0.3010 oh         1 N5A      -0.579800
     13 C1          -0.5230    -1.0240     0.8380 c5         1 N5A       0.267800
     14 N9          -1.4330     0.0010     0.3540 na         1 N5A      -0.282000
     15 C8          -1.1520     1.2750    -0.0600 cc         1 N5A       0.420700
     16 N7          -2.2100     1.9350    -0.4350 nd         1 N5A      -0.558100
     17 C7          -3.2450     1.0540    -0.2630 ca         1 N5A      -0.226200
     18 C9          -2.7820    -0.1560     0.2280 ca         1 N5A       0.446800
     19 N3          -3.5130    -1.2320     0.5130 nb         1 N5A      -0.749000
     20 C10         -4.7970    -1.0230     0.2780 ca         1 N5A       0.705900
     21 N1          -5.3830     0.0770    -0.1860 nb         1 N5A      -0.829000
     22 C6          -4.6330     1.1480    -0.4710 ca         1 N5A       0.777200
     23 N6          -5.2200     2.2480    -0.9450 nv         1 N5A      -0.953500
     24 H531         7.7140     1.5860     0.3490 hn         1 N5A       0.342300
     25 H532         7.9690     1.1040    -1.1680 hn         1 N5A       0.342300
     26 H521         5.8110     0.2690    -1.4270 h1         1 N5A       0.031200
     27 H522         6.4660    -0.4280     0.0480 h1         1 N5A       0.031200
     28 H511         5.4070     1.5040     1.3300 h1         1 N5A       0.066200
     29 H512         4.6330     2.0020    -0.1710 h1         1 N5A       0.066200
     30 HN5          4.2490    -0.7450     0.8620 hn         1 N5A       0.315500
     31 H4           2.3110    -1.5730     1.1690 h1         1 N5A       0.079700
     32 H3           1.0410    -0.4400    -1.3630 h1         1 N5A       0.074700
     33 HO3          2.0350    -2.2100    -2.2130 ho         1 N5A       0.424000
     34 H2          -0.7740    -2.0180    -1.0930 h1         1 N5A       0.079700
     35 HO2          0.8810    -3.6490    -0.2230 ho         1 N5A       0.424000
     36 H1          -1.0590    -1.5810     1.6110 h2         1 N5A       0.128700
     37 H8          -0.1450     1.6630    -0.0520 h5         1 N5A       0.098800
     38 H6          -5.4640    -1.8520     0.4900 h5         1 N5A       0.046100
     39 HN61        -4.6930     3.0890    -1.1030 hn         1 N5A       0.450800
     40 HN62        -6.2220     2.2970    -1.0090 hn         1 N5A       0.450800
@<TRIPOS>BOND
     1     1     2 1   
     2     1    24 1   
     3     1    25 1   
     4     2     3 1   
     5     2    26 1   
     6     2    27 1   
     7     3     4 1   
     8     3    28 1   
     9     3    29 1   
    10     4     5 1   
    11     4    30 1   
    12     5     6 2   
    13     5     7 1   
    14     7     8 1   
    15     7     9 1   
    16     7    31 1   
    17     8    13 1   
    18     9    10 1   
    19     9    11 1   
    20     9    32 1   
    21    10    33 1   
    22    11    12 1   
    23    11    13 1   
    24    11    34 1   
    25    12    35 1   
    26    13    14 1   
    27    13    36 1   
    28    14    15 1   
    29    14    18 1   
    30    15    16 2   
    31    15    37 1   
    32    16    17 1   
    33    17    18 ar  
    34    17    22 ar  
    35    18    19 ar  
    36    19    20 ar  
    37    20    21 ar  
    38    20    38 1   
    39    21    22 ar  
    40    22    23 1   
    41    23    39 1   
    42    23    40 1   
@<TRIPOS>SUBSTRUCTURE
     1 N5A         1 TEMP              0 ****  ****    0 ROOT
