@<TRIPOS>MOLECULE
N5B
   30    32     1     0     0
SMALL
abcg2


@<TRIPOS>ATOM
      1 C1          -0.1410    -0.0090     3.0880 cc         1 N5B       0.302300
      2 C2          -0.8310     0.1340     4.3830 cx         1 N5B      -0.165000
      3 C3          -0.7340     0.1010     1.8130 cc         1 N5B      -0.226000
      4 N4           1.1490    -0.2650     3.0010 nd         1 N5B      -0.527800
      5 C5          -0.3970    -0.6770     5.5720 cx         1 N5B      -0.117900
      6 C6          -0.1390     0.7910     5.5460 cx         1 N5B      -0.117900
      7 C7           0.3120    -0.1100     0.9360 cd         1 N5B      -0.000400
      8 N8           1.4050    -0.3220     1.6900 na         1 N5B      -0.045200
      9 N9           0.4130    -0.1320    -0.4420 ns         1 N5B      -0.398100
     10 C10         -0.6240     0.0600    -1.3010 c          1 N5B       0.626700
     11 C11         -0.2660     0.0430    -2.7480 ca         1 N5B      -0.155600
     12 O12         -1.7680     0.2260    -0.9220 o          1 N5B      -0.559100
     13 C13         -1.2590    -0.3100    -3.6610 ca         1 N5B      -0.070000
     14 C14          0.9970     0.4000    -3.2180 ca         1 N5B      -0.070000
     15 C15         -0.9860    -0.3310    -5.0190 ca         1 N5B      -0.117500
     16 C16          1.2650     0.3910    -4.5790 ca         1 N5B      -0.117500
     17 C17          0.2770     0.0210    -5.4810 ca         1 N5B      -0.084000
     18 H2          -1.8940     0.3210     4.2910 hc         1 N5B       0.085700
     19 H3          -1.7640     0.2990     1.5860 ha         1 N5B       0.168000
     20 H5C1        -1.1670    -1.0540     6.2320 hc         1 N5B       0.074700
     21 H5C2         0.4450    -1.3450     5.4350 hc         1 N5B       0.074700
     22 H6C1         0.8780     1.1290     5.3890 hc         1 N5B       0.074700
     23 H6C2        -0.7320     1.4310     6.1870 hc         1 N5B       0.074700
     24 H8           2.3440    -0.5030     1.3700 hn         1 N5B       0.365000
     25 H9           1.3150    -0.3710    -0.8240 hn         1 N5B       0.321500
     26 H13         -2.2450    -0.5810    -3.3060 ha         1 N5B       0.123000
     27 H14          1.7780     0.7180    -2.5380 ha         1 N5B       0.123000
     28 H15         -1.7600    -0.6180    -5.7180 ha         1 N5B       0.120000
     29 H16          2.2450     0.6820    -4.9330 ha         1 N5B       0.120000
     30 H17          0.4880     0.0120    -6.5420 ha         1 N5B       0.118000
@<TRIPOS>BOND
     1     1     2 1   
     2     1     3 1   
     3     1     4 2   
     4     2     5 1   
     5     2     6 1   
     6     2    18 1   
     7     3     7 2   
     8     3    19 1   
     9     4     8 1   
    10     5     6 1   
    11     5    20 1   
    12     5    21 1   
    13     6    22 1   
    14     6    23 1   
    15     7     8 1   
    16     7     9 1   
    17     8    24 1   
    18     9    10 1   
    19     9    25 1   
    20    10    11 1   
    21    10    12 2   
    22    11    13 ar  
    23    11    14 ar  
    24    13    15 ar  
    25    13    26 1   
    26    14    16 ar  
    27    14    27 1   
    28    15    17 ar  
    29    15    28 1   
    30    16    17 ar  
    31    16    29 1   
    32    17    30 1   
@<TRIPOS>SUBSTRUCTURE
     1 N5B         1 TEMP              0 ****  ****    0 ROOT
