@<TRIPOS>MOLECULE
N5D
   38    40     1     0     0
SMALL
No Charge or Current Charge


@<TRIPOS>ATOM
      1 N1          -4.9770    11.5250    32.6510 ns         1 N5D      -0.392100
      2 N3          -3.7740    10.6880    35.8930 na         1 N5D       0.129800
      3 C4          -4.1440    12.1500    31.7440 c          1 N5D       0.667100
      4 C5          -4.6950    11.1180    33.9560 cc         1 N5D      -0.055400
      5 C6          -5.5850    10.4770    34.8370 cc         1 N5D       0.218900
      6 C8          -2.5640    11.8670    37.7640 c          1 N5D       0.581100
      7 C10         -0.0420    13.4810    39.4930 cx         1 N5D      -0.133900
      8 N           -4.7730    12.4000    30.5510 ns         1 N5D      -0.498400
      9 O           -2.9840    12.4460    31.9800 o          1 N5D      -0.574100
     10 C1          -4.2890    13.7830    27.3730 cc         1 N5D       0.223300
     11 C11         -0.2330    12.5890    40.6960 cx         1 N5D      -0.133900
     12 C12         -3.5210    11.2520    34.6360 cd         1 N5D      -0.145000
     13 C2          -5.0660    13.1680    28.3010 cd         1 N5D      -0.295000
     14 C3          -4.2570    13.0020    29.4320 cd         1 N5D       0.418900
     15 C9          -1.3760    12.8210    39.7380 cx         1 N5D       0.048700
     16 N2          -5.0670    10.1960    36.0150 nd         1 N5D      -0.505800
     17 N4          -1.7510    11.7340    38.8730 ns         1 N5D      -0.487900
     18 N5          -3.0370    13.4730    29.2600 nc         1 N5D      -0.355300
     19 O1          -3.0320    12.9510    37.4360 o          1 N5D      -0.566100
     20 O2          -3.0420    13.9900    27.9100 os         1 N5D      -0.101700
     21 H1          -5.9100    11.3450    32.3050 hn         1 N5D       0.319500
     22 H2          -6.6140    10.2030    34.6420 h4         1 N5D       0.036100
     23 H3          -3.1790     9.8140    37.7130 h1         1 N5D       0.079700
     24 H4          -1.8540    10.2130    36.6020 h1         1 N5D       0.079700
     25 H6           0.0280    14.5530    39.6600 hc         1 N5D       0.078950
     26 H7          -5.7340    12.0990    30.5040 hn         1 N5D       0.321500
     27 H11          0.2560    11.6180    40.6900 hc         1 N5D       0.078950
     28 H12         -0.2920    13.0630    41.6730 hc         1 N5D       0.078950
     29 H13         -2.5660    11.6810    34.3590 h4         1 N5D       0.185000
     30 H14         -6.1000    12.8690    28.1840 ha         1 N5D       0.147000
     31 H15         -2.2080    13.4450    40.0710 h1         1 N5D       0.093700
     32 H16         -1.4100    10.8010    39.0770 hn         1 N5D       0.316500
     33 C7          -2.8130    10.5620    37.0000 c3         1 N5D       0.009600
     34 C           -4.5780    14.2260    25.9700 c3         1 N5D      -0.140400
     35 H5           0.5700    13.1070    38.6750 hc         1 N5D       0.078950
     36 H8          -3.9100    13.7250    25.2600 hc         1 N5D       0.064367
     37 H9          -5.6110    13.9890    25.6900 hc         1 N5D       0.064367
     38 H10         -4.4370    15.3080    25.8690 hc         1 N5D       0.064367
@<TRIPOS>BOND
     1     1     3 1   
     2     1     4 1   
     3     1    21 1   
     4     2    12 1   
     5     2    16 1   
     6     2    33 1   
     7     3     8 1   
     8     3     9 2   
     9     4     5 1   
    10     4    12 2   
    11     5    16 2   
    12     5    22 1   
    13     6    17 1   
    14     6    19 2   
    15     6    33 1   
    16     7    11 1   
    17     7    15 1   
    18     7    25 1   
    19     7    35 1   
    20     8    14 1   
    21     8    26 1   
    22    10    13 2   
    23    10    20 1   
    24    10    34 1   
    25    11    15 1   
    26    11    27 1   
    27    11    28 1   
    28    12    29 1   
    29    13    14 1   
    30    13    30 1   
    31    14    18 2   
    32    15    17 1   
    33    15    31 1   
    34    17    32 1   
    35    18    20 1   
    36    23    33 1   
    37    24    33 1   
    38    34    36 1   
    39    34    37 1   
    40    34    38 1   
@<TRIPOS>SUBSTRUCTURE
     1 N5D         1 TEMP              0 ****  ****    0 ROOT
