@<TRIPOS>MOLECULE
N5D
   38    40     1     0     0
SMALL
abcg2


@<TRIPOS>ATOM
      1 N1          -5.0860    11.5670    32.7280 ns         1 N5D      -0.392100
      2 N3          -3.5250    10.6860    35.8070 na         1 N5D       0.129800
      3 C4          -4.2670    12.0520    31.7490 c          1 N5D       0.667100
      4 C5          -4.6570    11.1850    34.0000 cc         1 N5D      -0.055400
      5 C6          -5.5050    10.7420    35.0360 cc         1 N5D       0.218900
      6 C8          -2.4060    11.8190    37.6940 c          1 N5D       0.581100
      7 C10         -0.4190    13.6500    39.5590 cx         1 N5D      -0.133900
      8 N           -4.9530    12.4190    30.6010 ns         1 N5D      -0.498400
      9 O           -3.0560    12.1530    31.8730 o          1 N5D      -0.574100
     10 C1          -4.2950    13.6820    27.3790 cc         1 N5D       0.223300
     11 C11         -0.2660    12.5900    40.6190 cx         1 N5D      -0.133900
     12 C12         -3.3830    11.1410    34.5360 cd         1 N5D      -0.145000
     13 C2          -5.2000    13.3030    28.3120 cd         1 N5D      -0.295000
     14 C3          -4.4070    12.8920    29.4250 cd         1 N5D       0.418900
     15 C9          -1.5230    12.6620    39.8100 cx         1 N5D       0.048700
     16 N2          -4.8060    10.4470    36.1310 nd         1 N5D      -0.505800
     17 N4          -1.7560    11.6170    38.8550 ns         1 N5D      -0.487900
     18 N5          -3.1190    13.0120    29.1880 nc         1 N5D      -0.355300
     19 O1          -2.8620    12.9020    37.3450 o          1 N5D      -0.566100
     20 O2          -3.0500    13.5220    27.8690 os         1 N5D      -0.101700
     21 H1          -6.0740    11.4820    32.5480 hn         1 N5D       0.319500
     22 H2          -6.5770    10.6230    35.0150 h4         1 N5D       0.036100
     23 H3          -2.6790     9.6840    37.4050 h1         1 N5D       0.079700
     24 H4          -1.5360    10.4470    36.2980 h1         1 N5D       0.079700
     25 H6          -0.5830    14.6730    39.8680 hc         1 N5D       0.078950
     26 H7          -5.9600    12.3690    30.6100 hn         1 N5D       0.321500
     27 H11          0.4070    11.7680    40.4090 hc         1 N5D       0.078950
     28 H12         -0.3210    12.8820    41.6590 hc         1 N5D       0.078950
     29 H13         -2.4240    11.3880    34.1220 h4         1 N5D       0.185000
     30 H14         -6.2740    13.3080    28.2390 ha         1 N5D       0.147000
     31 H15         -2.4180    13.0300    40.2980 h1         1 N5D       0.093700
     32 H16         -1.4810    10.6780    39.1010 hn         1 N5D       0.316500
     33 C7          -2.4940    10.5730    36.8040 c3         1 N5D       0.009600
     34 C           -4.4190    14.2120    26.0010 c3         1 N5D      -0.140400
     35 H5           0.1460    13.5270    38.6450 hc         1 N5D       0.078950
     36 H8          -3.9350    13.5420    25.2880 hc         1 N5D       0.064367
     37 H9          -5.4700    14.3110    25.7350 hc         1 N5D       0.064367
     38 H10         -3.9400    15.1900    25.9220 hc         1 N5D       0.064367
@<TRIPOS>BOND
     1     1     3 1   
     2     1     4 1   
     3     1    21 1   
     4     2    12 1   
     5     2    16 1   
     6     2    33 1   
     7     3     8 1   
     8     3     9 2   
     9     4     5 1   
    10     4    12 2   
    11     5    16 2   
    12     5    22 1   
    13     6    17 1   
    14     6    19 2   
    15     6    33 1   
    16     7    11 1   
    17     7    15 1   
    18     7    25 1   
    19     7    35 1   
    20     8    14 1   
    21     8    26 1   
    22    10    13 2   
    23    10    20 1   
    24    10    34 1   
    25    11    15 1   
    26    11    27 1   
    27    11    28 1   
    28    12    29 1   
    29    13    14 1   
    30    13    30 1   
    31    14    18 2   
    32    15    17 1   
    33    15    31 1   
    34    17    32 1   
    35    18    20 1   
    36    23    33 1   
    37    24    33 1   
    38    34    36 1   
    39    34    37 1   
    40    34    38 1   
@<TRIPOS>SUBSTRUCTURE
     1 N5D         1 TEMP              0 ****  ****    0 ROOT
