@<TRIPOS>MOLECULE
N5H
   86    85     1     0     0
SMALL
bcc


@<TRIPOS>ATOM
      1 C01         -7.6730    -3.9650    -0.6290 c2         1 N5H      -0.239000
      2 C02         -7.6990    -2.9700     0.2570 c2         1 N5H      -0.096400
      3 C03         -6.4790    -2.1090     0.4860 c3         1 N5H      -0.036200
      4 C04         -6.3100    -1.0000    -0.5670 c3         1 N5H      -0.049200
      5 C05         -5.1070    -0.1560    -0.3000 c2         1 N5H      -0.132200
      6 C06         -4.0200    -0.1200    -1.0770 ce         1 N5H      -0.159000
      7 C07         -2.8410     0.6820    -0.8020 ce         1 N5H      -0.115000
      8 C08         -1.7580     0.7030    -1.5840 c2         1 N5H      -0.176200
      9 C09         -0.5230     1.5020    -1.3320 c3         1 N5H      -0.037200
     10 C10          0.7360     0.6300    -1.2110 c3         1 N5H      -0.046700
     11 C11          0.6390    -0.3170    -0.0190 c3         1 N5H      -0.089100
     12 C12          1.9680     1.5230    -1.1060 c3         1 N5H      -0.178400
     13 C13          3.2960     0.8230    -1.2500 c          1 N5H       0.575100
     14 O14          3.4120    -0.2430    -1.8100 o          1 N5H      -0.502100
     15 C15          4.4760     1.5420    -0.6410 c3         1 N5H      -0.220400
     16 C16          5.8330     1.0670    -1.1350 c3         1 N5H       0.129100
     17 O17          6.0160     1.3340    -2.5070 oh         1 N5H      -0.578800
     18 C18          6.9490     1.6760    -0.2860 c3         1 N5H       0.073000
     19 N19          8.2600     1.1930    -0.6460 ns         1 N5H      -0.570900
     20 C20          8.7270    -0.0000    -0.2420 c          1 N5H       0.673100
     21 O21          8.0750    -0.7530     0.4680 o          1 N5H      -0.589100
     22 C22         10.1280    -0.3510    -0.7210 c3         1 N5H      -0.138700
     23 C23         10.1530    -1.7570    -1.3120 c3         1 N5H      -0.079100
     24 C24         11.1680    -0.1770     0.3910 c3         1 N5H       0.181100
     25 C25         11.2100     1.2260     0.9700 c3         1 N5H      -0.121100
     26 O26         10.8670    -1.1300     1.4130 os         1 N5H      -0.424900
     27 C27         11.8650    -1.5970     2.1690 c          1 N5H       0.760100
     28 N28         11.4020    -2.4700     3.0790 nt         1 N5H      -0.668000
     29 O29         13.0290    -1.2680     2.0520 o          1 N5H      -0.607000
     30 C30         -8.9240    -2.6670     1.0720 c3         1 N5H      -0.044200
     31 C31         -9.5700    -1.3010     0.7980 c3         1 N5H      -0.053700
     32 C32        -10.0690    -1.1990    -0.6370 c3         1 N5H      -0.084100
     33 C33        -10.7120    -1.0760     1.8000 c3         1 N5H      -0.032200
     34 C34        -11.3910     0.2620     1.6730 c2         1 N5H      -0.167400
     35 C35        -10.5030     1.4380     1.9470 c3         1 N5H      -0.036900
     36 C36        -12.6900     0.3180     1.3470 ce         1 N5H      -0.187200
     37 C37        -13.5990     1.5080     1.1640 c          1 N5H       0.909800
     38 O38        -14.8020     1.2180     0.9750 o          1 N5H      -0.836800
     39 O39        -13.1300     2.6660     1.2020 o          1 N5H      -0.836800
     40 H1          -6.7810    -4.1970    -1.1990 ha         1 N5H       0.107000
     41 H2          -8.5430    -4.5820    -0.8190 ha         1 N5H       0.107000
     42 H3          -6.5240    -1.6570     1.4810 hc         1 N5H       0.041200
     43 H4          -5.5810    -2.7320     0.4690 hc         1 N5H       0.041200
     44 H5          -6.2400    -1.4560    -1.5580 hc         1 N5H       0.057200
     45 H6          -7.2030    -0.3690    -0.5720 hc         1 N5H       0.057200
     46 H7          -5.1300     0.4490     0.6040 ha         1 N5H       0.119000
     47 H8          -3.9950    -0.7300    -1.9780 ha         1 N5H       0.118000
     48 H9          -2.8600     1.2940     0.0980 ha         1 N5H       0.116000
     49 H10         -1.7490     0.0850    -2.4800 ha         1 N5H       0.118000
     50 H11         -0.3780     2.2040    -2.1610 hc         1 N5H       0.040700
     51 H12         -0.6410     2.1080    -0.4270 hc         1 N5H       0.040700
     52 H13          0.8180     0.0350    -2.1270 hc         1 N5H       0.066700
     53 H14         -0.2370    -0.9610    -0.0950 hc         1 N5H       0.037367
     54 H15          1.5140    -0.9630     0.0560 hc         1 N5H       0.037367
     55 H16          0.5560     0.2450     0.9140 hc         1 N5H       0.037367
     56 H17          1.9560     2.2870    -1.8950 hc         1 N5H       0.056200
     57 H18          1.9580     2.0870    -0.1670 hc         1 N5H       0.056200
     58 H19          4.3600     2.6230    -0.7830 hc         1 N5H       0.063200
     59 H20          4.3940     1.3930     0.4430 hc         1 N5H       0.063200
     60 H21          5.8840    -0.0190    -1.0360 h1         1 N5H       0.113700
     61 H22          5.9690     2.2870    -2.6420 ho         1 N5H       0.388000
     62 H23          6.9520     2.7630    -0.3940 h1         1 N5H       0.052700
     63 H24          6.7630     1.4630     0.7680 h1         1 N5H       0.052700
     64 H25          8.8180     1.7500    -1.2710 hn         1 N5H       0.313500
     65 H26         10.4260     0.3540    -1.5040 hc         1 N5H       0.053700
     66 H27          9.8450    -2.5040    -0.5850 hc         1 N5H       0.048033
     67 H28          9.4860    -1.8280    -2.1720 hc         1 N5H       0.048033
     68 H29         11.1590    -2.0060    -1.6530 hc         1 N5H       0.048033
     69 H30         12.1430    -0.4130    -0.0460 h1         1 N5H       0.066700
     70 H31         10.2800     1.4870     1.4760 hc         1 N5H       0.049700
     71 H32         12.0270     1.3280     1.6850 hc         1 N5H       0.049700
     72 H33         11.3750     1.9530     0.1740 hc         1 N5H       0.049700
     73 H34         12.0480    -2.9380     3.6890 hn         1 N5H       0.330500
     74 H35         10.4410    -2.7640     3.0920 hn         1 N5H       0.330500
     75 H36         -9.6750    -3.4480     0.9140 hc         1 N5H       0.040200
     76 H37         -8.6490    -2.7090     2.1330 hc         1 N5H       0.040200
     77 H38         -8.8150    -0.5240     0.9630 hc         1 N5H       0.043700
     78 H39        -10.5000    -0.2180    -0.8420 hc         1 N5H       0.033367
     79 H40         -9.2670    -1.3630    -1.3580 hc         1 N5H       0.033367
     80 H41        -10.8440    -1.9460    -0.8320 hc         1 N5H       0.033367
     81 H42        -11.4450    -1.8800     1.6820 hc         1 N5H       0.024700
     82 H43        -10.3020    -1.1690     2.8130 hc         1 N5H       0.024700
     83 H44         -9.7610     1.5550     1.1520 hc         1 N5H       0.029700
     84 H45        -11.0620     2.3640     2.0210 hc         1 N5H       0.029700
     85 H46         -9.9380     1.2770     2.8680 hc         1 N5H       0.029700
     86 H47        -13.1880    -0.6370     1.1930 ha         1 N5H       0.090000
@<TRIPOS>BOND
     1     1     2 2   
     2     1    40 1   
     3     1    41 1   
     4     2     3 1   
     5     2    30 1   
     6     3     4 1   
     7     3    42 1   
     8     3    43 1   
     9     4     5 1   
    10     4    44 1   
    11     4    45 1   
    12     5     6 2   
    13     5    46 1   
    14     6     7 1   
    15     6    47 1   
    16     7     8 2   
    17     7    48 1   
    18     8     9 1   
    19     8    49 1   
    20     9    10 1   
    21     9    50 1   
    22     9    51 1   
    23    10    11 1   
    24    10    12 1   
    25    10    52 1   
    26    11    53 1   
    27    11    54 1   
    28    11    55 1   
    29    12    13 1   
    30    12    56 1   
    31    12    57 1   
    32    13    14 2   
    33    13    15 1   
    34    15    16 1   
    35    15    58 1   
    36    15    59 1   
    37    16    17 1   
    38    16    18 1   
    39    16    60 1   
    40    17    61 1   
    41    18    19 1   
    42    18    62 1   
    43    18    63 1   
    44    19    20 1   
    45    19    64 1   
    46    20    21 2   
    47    20    22 1   
    48    22    23 1   
    49    22    24 1   
    50    22    65 1   
    51    23    66 1   
    52    23    67 1   
    53    23    68 1   
    54    24    25 1   
    55    24    26 1   
    56    24    69 1   
    57    25    70 1   
    58    25    71 1   
    59    25    72 1   
    60    26    27 1   
    61    27    28 1   
    62    27    29 2   
    63    28    73 1   
    64    28    74 1   
    65    30    31 1   
    66    30    75 1   
    67    30    76 1   
    68    31    32 1   
    69    31    33 1   
    70    31    77 1   
    71    32    78 1   
    72    32    79 1   
    73    32    80 1   
    74    33    34 1   
    75    33    81 1   
    76    33    82 1   
    77    34    35 1   
    78    34    36 2   
    79    35    83 1   
    80    35    84 1   
    81    35    85 1   
    82    36    37 1   
    83    36    86 1   
    84    37    38 1   
    85    37    39 1   
@<TRIPOS>SUBSTRUCTURE
     1 N5H         1 TEMP              0 ****  ****    0 ROOT
