@<TRIPOS>MOLECULE
N5H
   86    85     1     0     0
SMALL
No Charge or Current Charge


@<TRIPOS>ATOM
      1 C01         -8.3750    -3.7290    -0.6670 c2         1 N5H      -0.339000
      2 C02         -7.9750    -2.7130     0.1140 c2         1 N5H      -0.096400
      3 C03         -6.5950    -2.0820    -0.0160 c3         1 N5H      -0.036200
      4 C04         -6.4830    -1.1010    -1.2040 c3         1 N5H      -0.049200
      5 C05         -5.0960    -0.5050    -1.3280 c2         1 N5H      -0.182200
      6 C06         -4.0430    -1.0950    -1.9310 ce         1 N5H      -0.209000
      7 C07         -2.7170    -0.4780    -2.0230 ce         1 N5H      -0.165000
      8 C08         -1.6650    -1.0740    -2.6220 c2         1 N5H      -0.226200
      9 C09         -0.2720    -0.4890    -2.7450 c3         1 N5H      -0.037200
     10 C10          0.7560    -1.1380    -1.7810 c3         1 N5H      -0.046700
     11 C11          0.3720    -0.9190    -0.2950 c3         1 N5H      -0.089100
     12 C12          2.1960    -0.6430    -2.0940 c3         1 N5H      -0.178400
     13 C13          3.2720    -1.3820    -1.2810 c          1 N5H       0.575100
     14 O14          3.6310    -2.5140    -1.5790 o          1 N5H      -0.502100
     15 C15          3.8730    -0.6530    -0.0750 c3         1 N5H      -0.220400
     16 C16          5.2650    -0.0840    -0.4080 c3         1 N5H       0.152300
     17 O17          5.1270     0.8900    -1.4490 oh         1 N5H      -0.641000
     18 C18          5.9440     0.5680     0.8260 c3         1 N5H       0.073000
     19 N19          7.2450     1.1880     0.5250 ns         1 N5H      -0.503900
     20 C20          8.3930     0.4920     0.2050 c          1 N5H       0.606100
     21 O21          8.3970    -0.7270     0.1110 o          1 N5H      -0.589100
     22 C22          9.6350     1.3710    -0.0450 c3         1 N5H      -0.138700
     23 C23         10.1660     1.2000    -1.4920 c3         1 N5H      -0.079100
     24 C24         10.7370     1.1710     1.0320 c3         1 N5H       0.204300
     25 C25         10.2190     1.3490     2.4800 c3         1 N5H      -0.121100
     26 O26         11.2710    -0.1600     0.8950 os         1 N5H      -0.448100
     27 C27         12.4930    -0.4400     1.4230 c          1 N5H       0.644100
     28 N28         12.7780    -1.7350     1.2430 nt         1 N5H      -0.601000
     29 O29         13.2460     0.3430     1.9740 o          1 N5H      -0.558000
     30 C30         -8.8400    -2.1490     1.2380 c3         1 N5H      -0.044200
     31 C31         -9.3660    -0.7070     0.9980 c3         1 N5H      -0.053700
     32 C32        -10.2310    -0.6150    -0.2850 c3         1 N5H      -0.084100
     33 C33        -10.1280    -0.1800     2.2470 c3         1 N5H      -0.032200
     34 C34        -10.5510     1.2830     2.1470 c2         1 N5H      -0.167400
     35 C35         -9.3840     2.2490     2.3170 c3         1 N5H      -0.036900
     36 C36        -11.8460     1.6380     1.9170 ce         1 N5H      -0.237200
     37 C37        -12.4390     3.0110     1.7740 c          1 N5H       0.699200
     38 O38        -13.6410     3.0730     1.5740 o          1 N5H      -0.731500
     39 O39        -11.7320     4.0030     1.8550 o          1 N5H      -0.731500
     40 H1          -7.7340    -4.1330    -1.4500 ha         1 N5H       0.157000
     41 H2          -9.3570    -4.1880    -0.5530 ha         1 N5H       0.157000
     42 H3          -6.3070    -1.5680     0.9110 hc         1 N5H       0.041200
     43 H4          -5.8500    -2.8740    -0.1600 hc         1 N5H       0.041200
     44 H5          -6.7480    -1.6270    -2.1290 hc         1 N5H       0.057200
     45 H6          -7.2190    -0.2970    -1.0880 hc         1 N5H       0.057200
     46 H7          -4.9920     0.4830    -0.8740 ha         1 N5H       0.169000
     47 H8          -4.1590    -2.0840    -2.3800 ha         1 N5H       0.168000
     48 H9          -2.6000     0.5110    -1.5730 ha         1 N5H       0.166000
     49 H10         -1.7740    -2.0630    -3.0720 ha         1 N5H       0.168000
     50 H11          0.0750    -0.6200    -3.7780 hc         1 N5H       0.040700
     51 H12         -0.2970     0.5940    -2.5690 hc         1 N5H       0.040700
     52 H13          0.7330    -2.2200    -1.9680 hc         1 N5H       0.066700
     53 H14         -0.6350    -1.3000    -0.0870 hc         1 N5H       0.037367
     54 H15          1.0610    -1.4460     0.3750 hc         1 N5H       0.037367
     55 H16          0.3920     0.1480    -0.0400 hc         1 N5H       0.037367
     56 H17          2.4000    -0.8140    -3.1580 hc         1 N5H       0.056200
     57 H18          2.2430     0.4310    -1.8800 hc         1 N5H       0.056200
     58 H19          3.2230     0.1780     0.2260 hc         1 N5H       0.063200
     59 H20          3.9770    -1.3660     0.7510 hc         1 N5H       0.063200
     60 H21          5.9050    -0.9140    -0.7450 h1         1 N5H       0.113700
     61 H22          5.9800     1.3730    -1.4960 ho         1 N5H       0.427000
     62 H23          5.2810     1.3380     1.2410 h1         1 N5H       0.052700
     63 H24          6.0920    -0.1950     1.6020 h1         1 N5H       0.052700
     64 H25          7.3280     2.1960     0.6010 hn         1 N5H       0.313500
     65 H26          9.3180     2.4170     0.0460 hc         1 N5H       0.053700
     66 H27         10.4920     0.1690    -1.6760 hc         1 N5H       0.048033
     67 H28          9.3820     1.4430    -2.2210 hc         1 N5H       0.048033
     68 H29         11.0170     1.8660    -1.6750 hc         1 N5H       0.048033
     69 H30         11.5200     1.9200     0.8430 h1         1 N5H       0.066700
     70 H31          9.5190     0.5500     2.7530 hc         1 N5H       0.049700
     71 H32         11.0470     1.3370     3.1980 hc         1 N5H       0.049700
     72 H33          9.7030     2.3100     2.5860 hc         1 N5H       0.049700
     73 H34         13.6550    -2.1040     1.5770 hn         1 N5H       0.330500
     74 H35         12.1080    -2.3260     0.7760 hn         1 N5H       0.330500
     75 H36         -9.7050    -2.8040     1.4020 hc         1 N5H       0.040200
     76 H37         -8.2730    -2.1740     2.1770 hc         1 N5H       0.040200
     77 H38         -8.4940    -0.0590     0.8560 hc         1 N5H       0.043700
     78 H39        -10.5340     0.4200    -0.4810 hc         1 N5H       0.033367
     79 H40         -9.6750    -0.9660    -1.1620 hc         1 N5H       0.033367
     80 H41        -11.1370    -1.2260    -0.1880 hc         1 N5H       0.033367
     81 H42        -11.0070    -0.8150     2.4100 hc         1 N5H       0.024700
     82 H43         -9.5010    -0.3190     3.1370 hc         1 N5H       0.024700
     83 H44         -9.1960     2.8030     1.3900 hc         1 N5H       0.029700
     84 H45         -9.5850     2.9750     3.1140 hc         1 N5H       0.029700
     85 H46         -8.4510     1.7380     2.5840 hc         1 N5H       0.029700
     86 H47        -12.5860     0.8480     1.8100 ha         1 N5H       0.140000
@<TRIPOS>BOND
     1     1     2 2   
     2     1    40 1   
     3     1    41 1   
     4     2     3 1   
     5     2    30 1   
     6     3     4 1   
     7     3    42 1   
     8     3    43 1   
     9     4     5 1   
    10     4    44 1   
    11     4    45 1   
    12     5     6 2   
    13     5    46 1   
    14     6     7 1   
    15     6    47 1   
    16     7     8 2   
    17     7    48 1   
    18     8     9 1   
    19     8    49 1   
    20     9    10 1   
    21     9    50 1   
    22     9    51 1   
    23    10    11 1   
    24    10    12 1   
    25    10    52 1   
    26    11    53 1   
    27    11    54 1   
    28    11    55 1   
    29    12    13 1   
    30    12    56 1   
    31    12    57 1   
    32    13    14 2   
    33    13    15 1   
    34    15    16 1   
    35    15    58 1   
    36    15    59 1   
    37    16    17 1   
    38    16    18 1   
    39    16    60 1   
    40    17    61 1   
    41    18    19 1   
    42    18    62 1   
    43    18    63 1   
    44    19    20 1   
    45    19    64 1   
    46    20    21 2   
    47    20    22 1   
    48    22    23 1   
    49    22    24 1   
    50    22    65 1   
    51    23    66 1   
    52    23    67 1   
    53    23    68 1   
    54    24    25 1   
    55    24    26 1   
    56    24    69 1   
    57    25    70 1   
    58    25    71 1   
    59    25    72 1   
    60    26    27 1   
    61    27    28 1   
    62    27    29 2   
    63    28    73 1   
    64    28    74 1   
    65    30    31 1   
    66    30    75 1   
    67    30    76 1   
    68    31    32 1   
    69    31    33 1   
    70    31    77 1   
    71    32    78 1   
    72    32    79 1   
    73    32    80 1   
    74    33    34 1   
    75    33    81 1   
    76    33    82 1   
    77    34    35 1   
    78    34    36 2   
    79    35    83 1   
    80    35    84 1   
    81    35    85 1   
    82    36    37 1   
    83    36    86 1   
    84    37    38 1   
    85    37    39 1   
@<TRIPOS>SUBSTRUCTURE
     1 N5H         1 TEMP              0 ****  ****    0 ROOT
