@<TRIPOS>MOLECULE
N5J
   16    17     1     0     0
SMALL
abcg2


@<TRIPOS>ATOM
      1 O            1.7810    -2.0240    -0.0130 o          1 N5J      -0.521000
      2 C1           1.3720    -0.8800    -0.0070 c          1 N5J       0.573600
      3 N1           2.2200     0.2040     0.0040 ns         1 N5J      -0.429400
      4 C2           1.8040     1.4970     0.0110 cc         1 N5J       0.501800
      5 N2           0.5790     1.8730     0.0090 nd         1 N5J      -0.607100
      6 C3          -0.3630     0.8730    -0.0030 ca         1 N5J       0.120400
      7 N3          -2.6910     0.3200    -0.0210 nb         1 N5J      -0.642000
      8 C4          -1.7270     1.2120    -0.0080 ca         1 N5J       0.356900
      9 C5          -2.3650    -0.9790    -0.0280 ca         1 N5J       0.313900
     10 C6          -1.0640    -1.4290    -0.0230 ca         1 N5J      -0.094000
     11 C7          -0.0380    -0.4860    -0.0110 ca         1 N5J      -0.169600
     12 HN1          3.2160     0.0230     0.0050 hn         1 N5J       0.334500
     13 H2           2.5990     2.2320     0.0200 h5         1 N5J       0.050800
     14 H4          -2.0060     2.2610    -0.0010 h4         1 N5J       0.040100
     15 H5          -3.1880    -1.6820    -0.0380 h4         1 N5J       0.027100
     16 H6          -0.8480    -2.4890    -0.0290 ha         1 N5J       0.145000
@<TRIPOS>BOND
     1     1     2 2   
     2     2     3 1   
     3     2    11 1   
     4     3     4 1   
     5     3    12 1   
     6     4     5 2   
     7     4    13 1   
     8     5     6 1   
     9     6     8 ar  
    10     6    11 ar  
    11     7     8 ar  
    12     7     9 ar  
    13     8    14 1   
    14     9    10 ar  
    15     9    15 1   
    16    10    11 ar  
    17    10    16 1   
@<TRIPOS>SUBSTRUCTURE
     1 N5J         1 TEMP              0 ****  ****    0 ROOT
