@<TRIPOS>MOLECULE
N5J
   16    17     1     0     0
SMALL
No Charge or Current Charge


@<TRIPOS>ATOM
      1 O            1.7990    -2.0100    -0.0140 o          1 N5J      -0.521000
      2 C1           1.4000    -0.8560    -0.0080 c          1 N5J       0.573600
      3 N1           2.2460     0.1990     0.0040 ns         1 N5J      -0.429400
      4 C2           1.8560     1.5140     0.0120 cc         1 N5J       0.501800
      5 N2           0.5880     1.9370     0.0080 nd         1 N5J      -0.607100
      6 C3          -0.3740     0.8990    -0.0040 ca         1 N5J       0.120400
      7 N3          -2.7590     0.3020    -0.0200 nb         1 N5J      -0.642000
      8 C4          -1.7590     1.2220    -0.0080 ca         1 N5J       0.356900
      9 C5          -2.4060    -1.0030    -0.0270 ca         1 N5J       0.313900
     10 C6          -1.0670    -1.4300    -0.0240 ca         1 N5J      -0.094000
     11 C7          -0.0320    -0.4700    -0.0120 ca         1 N5J      -0.169600
     12 HN1          3.2320    -0.0170     0.0080 hn         1 N5J       0.334500
     13 H2           2.6970     2.1970     0.0210 h5         1 N5J       0.050800
     14 H4          -2.0740     2.2650    -0.0020 h4         1 N5J       0.040100
     15 H5          -3.2190    -1.7280    -0.0370 h4         1 N5J       0.027100
     16 H6          -0.8460    -2.4950    -0.0300 ha         1 N5J       0.145000
@<TRIPOS>BOND
     1     1     2 2   
     2     2     3 1   
     3     2    11 1   
     4     3     4 1   
     5     3    12 1   
     6     4     5 2   
     7     4    13 1   
     8     5     6 1   
     9     6     8 ar  
    10     6    11 ar  
    11     7     8 ar  
    12     7     9 ar  
    13     8    14 1   
    14     9    10 ar  
    15     9    15 1   
    16    10    11 ar  
    17    10    16 1   
@<TRIPOS>SUBSTRUCTURE
     1 N5J         1 TEMP              0 ****  ****    0 ROOT
