@<TRIPOS>MOLECULE
N5K
   59    63     1     0     0
SMALL
No Charge or Current Charge


@<TRIPOS>ATOM
      1 C1          31.5630   -11.2100    10.3740 ca         1 N5K       0.385000
      2 C2          31.3290   -11.7100     9.0840 ca         1 N5K      -0.213000
      3 C3          30.0260   -11.9790     8.6430 ca         1 N5K       0.033000
      4 C12         33.8700   -10.1180    10.0520 c3         1 N5K       0.254500
      5 C13         33.1500    -8.9060     9.4560 ca         1 N5K      -0.078300
      6 C14         32.9430    -8.7900     8.0700 ca         1 N5K       0.071100
      7 C15         32.2890    -7.7190     7.5230 ca         1 N5K       0.054100
      8 C16         31.7920    -6.6760     8.3130 ca         1 N5K      -0.064000
      9 C17         31.9780    -6.7580     9.7080 ca         1 N5K      -0.106000
     10 C18         32.6510    -7.8650    10.2760 ca         1 N5K      -0.086000
     11 C19         35.0510    -9.6770    10.9590 ca         1 N5K       0.343300
     12 C20         36.2610    -9.1920    10.4000 ca         1 N5K       0.077000
     13 C21         37.2970    -8.7960    11.2620 ca         1 N5K      -0.059000
     14 C22         37.0930    -8.8960    12.6480 ca         1 N5K      -0.146000
     15 C23         35.8670    -9.3850    13.1290 ca         1 N5K       0.352900
     16 C28         32.8040    -9.1050     5.8910 c5         1 N5K       0.584000
     17 C4          28.9380   -11.7410     9.5030 ca         1 N5K      -0.387500
     18 C5          29.1620   -11.2350    10.8030 ca         1 N5K       0.030000
     19 C6          30.4700   -10.9670    11.2650 ca         1 N5K       0.200000
     20 N7          30.6850   -10.4210    12.5630 nu         1 N5K      -0.946900
     21 S8          27.2750   -12.0860     8.9520 sy         1 N5K       1.164600
     22 O9          27.2840   -13.0920     7.8900 o          1 N5K      -0.542500
     23 O10         26.3730   -12.1400    10.0980 o          1 N5K      -0.542500
     24 N11         26.8990   -10.6800     8.2160 n8         1 N5K      -0.985100
     25 N24         34.8600    -9.7700    12.3120 nb         1 N5K      -0.688000
     26 Cl1         36.5060    -9.0660     8.6550 cl         1 N5K      -0.168000
     27 N26         32.8910   -10.9760    10.7690 nu         1 N5K      -0.977200
     28 O27         33.3490    -9.6790     7.1250 os         1 N5K      -0.357100
     29 O29         32.2000    -7.7980     6.1710 os         1 N5K      -0.350100
     30 F30         33.8180    -8.9650     4.9480 f          1 N5K      -0.079000
     31 F31         31.8390    -9.9620     5.3680 f          1 N5K      -0.079000
     32 C32         30.0470   -10.5510    13.7780 ca         1 N5K       0.454900
     33 N33         30.5080    -9.7610    14.7510 nb         1 N5K      -0.379000
     34 C34         29.8740    -9.9220    15.9120 ca         1 N5K       0.447900
     35 N35         28.8690   -10.7630    16.1660 nb         1 N5K      -0.321000
     36 C36         28.4850   -11.5150    15.1170 ca         1 N5K       0.428300
     37 N37         29.0550   -11.4430    13.8950 nb         1 N5K      -0.367000
     38 O38         27.4480   -12.3950    15.3320 os         1 N5K      -0.441300
     39 C39         26.9240   -13.2120    14.2630 c3         1 N5K       0.161900
     40 N40         30.2930    -9.1470    16.9320 nv         1 N5K      -1.068900
     41 H1          32.1660   -11.9000     8.4200 ha         1 N5K       0.130000
     42 H2          29.8680   -12.3680     7.6370 ha         1 N5K       0.140000
     43 H3          34.2970   -10.7020     9.2250 h1         1 N5K       0.094700
     44 H4          31.2780    -5.8310     7.8610 ha         1 N5K       0.146000
     45 H5          31.6010    -5.9650    10.3510 ha         1 N5K       0.129000
     46 H6          32.7810    -7.9120    11.3550 ha         1 N5K       0.132000
     47 H7          38.2360    -8.4190    10.8630 ha         1 N5K       0.142000
     48 H8          37.8690    -8.6000    13.3480 ha         1 N5K       0.136000
     49 H9          35.6850    -9.4720    14.2000 h4         1 N5K       0.032100
     50 H10         28.3160   -11.0280    11.4530 ha         1 N5K       0.144000
     51 H11         31.5060    -9.8220    12.6350 hn         1 N5K       0.509000
     52 H12         26.0330   -10.4410     8.6920 hn         1 N5K       0.467500
     53 H13         27.5850   -10.0450     8.6120 hn         1 N5K       0.467500
     54 H14         33.0360   -10.9800    11.7810 hn         1 N5K       0.529000
     55 H15         26.1020   -13.8390    14.6280 h1         1 N5K       0.058033
     56 H16         26.5380   -12.5890    13.4460 h1         1 N5K       0.058033
     57 H17         27.7010   -13.8740    13.8580 h1         1 N5K       0.058033
     58 H18         30.8730    -8.3430    16.7050 hn         1 N5K       0.508500
     59 H19         29.6880    -9.0540    17.7440 hn         1 N5K       0.508500
@<TRIPOS>BOND
     1     1     2 ar  
     2     1    19 ar  
     3     1    27 1   
     4     2     3 ar  
     5     2    41 1   
     6     3    17 ar  
     7     3    42 1   
     8     4     5 1   
     9     4    11 1   
    10     4    27 1   
    11     4    43 1   
    12     5     6 ar  
    13     5    10 ar  
    14     6     7 ar  
    15     6    28 1   
    16     7     8 ar  
    17     7    29 1   
    18     8     9 ar  
    19     8    44 1   
    20     9    10 ar  
    21     9    45 1   
    22    10    46 1   
    23    11    12 ar  
    24    11    25 ar  
    25    12    13 ar  
    26    12    26 1   
    27    13    14 ar  
    28    13    47 1   
    29    14    15 ar  
    30    14    48 1   
    31    15    25 ar  
    32    15    49 1   
    33    16    28 1   
    34    16    29 1   
    35    16    30 1   
    36    16    31 1   
    37    17    18 ar  
    38    17    21 1   
    39    18    19 ar  
    40    18    50 1   
    41    19    20 1   
    42    20    32 1   
    43    20    51 1   
    44    21    22 2   
    45    21    23 2   
    46    21    24 1   
    47    24    52 1   
    48    24    53 1   
    49    27    54 1   
    50    32    33 ar  
    51    32    37 ar  
    52    33    34 ar  
    53    34    35 ar  
    54    34    40 1   
    55    35    36 ar  
    56    36    37 ar  
    57    36    38 1   
    58    38    39 1   
    59    39    55 1   
    60    39    56 1   
    61    39    57 1   
    62    40    58 1   
    63    40    59 1   
@<TRIPOS>SUBSTRUCTURE
     1 N5K         1 TEMP              0 ****  ****    0 ROOT
