@<TRIPOS>MOLECULE
N5K
   59    63     1     0     0
SMALL
abcg2


@<TRIPOS>ATOM
      1 C1          31.1260   -10.5070    10.5170 ca         1 N5K       0.385000
      2 C2          30.9400   -10.9890     9.2100 ca         1 N5K      -0.213000
      3 C3          29.7400   -11.5580     8.8230 ca         1 N5K       0.033000
      4 C12         33.4720    -9.7900    10.1190 c3         1 N5K       0.254500
      5 C13         33.2880    -8.5620     9.2320 ca         1 N5K      -0.078300
      6 C14         33.2550    -8.6180     7.8600 ca         1 N5K       0.071100
      7 C15         33.0580    -7.5020     7.0690 ca         1 N5K       0.054100
      8 C16         32.8860    -6.2450     7.5890 ca         1 N5K      -0.064000
      9 C17         32.9160    -6.1600     8.9890 ca         1 N5K      -0.106000
     10 C18         33.1090    -7.2820     9.7830 ca         1 N5K      -0.086000
     11 C19         34.6920    -9.6170    11.0120 ca         1 N5K       0.343300
     12 C20         35.9920    -9.6890    10.5080 ca         1 N5K       0.077000
     13 C21         37.0740    -9.5080    11.3550 ca         1 N5K      -0.059000
     14 C22         36.8270    -9.2520    12.6970 ca         1 N5K      -0.146000
     15 C23         35.5100    -9.1930    13.1260 ca         1 N5K       0.352900
     16 C28         33.2740    -9.2660     5.7340 c5         1 N5K       0.584000
     17 C4          28.6890   -11.6390     9.7310 ca         1 N5K      -0.387500
     18 C5          28.8220   -11.1090    11.0140 ca         1 N5K       0.030000
     19 C6          30.0210   -10.5470    11.4110 ca         1 N5K       0.200000
     20 N7          30.1950    -9.9680    12.6840 nu         1 N5K      -0.946900
     21 S8          27.1620   -12.3670     9.2450 sy         1 N5K       1.164600
     22 O9          27.3960   -13.1410     8.0470 o          1 N5K      -0.542500
     23 O10         26.5670   -13.0060    10.3980 o          1 N5K      -0.542500
     24 N11         26.1140   -11.1690     8.8150 n8         1 N5K      -0.985100
     25 N24         34.4760    -9.3730    12.3020 nb         1 N5K      -0.688000
     26 CL1         36.2790   -10.0110     8.8200 cl         1 N5K      -0.168000
     27 N26         32.3160   -10.0140    10.9520 nu         1 N5K      -0.977200
     28 O27         33.3950    -9.7240     7.0340 os         1 N5K      -0.357100
     29 O29         33.0710    -7.8990     5.7390 os         1 N5K      -0.350100
     30 F30         34.3800    -9.5730     5.0290 f          1 N5K      -0.079000
     31 F31         32.2540    -9.8900     5.1120 f          1 N5K      -0.079000
     32 C32         29.7600   -10.4270    13.8860 ca         1 N5K       0.454900
     33 N33         30.0280    -9.6460    14.9380 nb         1 N5K      -0.379000
     34 C34         29.6030   -10.1260    16.1170 ca         1 N5K       0.447900
     35 N35         28.9330   -11.2830    16.2840 nb         1 N5K      -0.321000
     36 C36         28.7320   -11.9570    15.1570 ca         1 N5K       0.428300
     37 N37         29.1190   -11.6040    13.9380 nb         1 N5K      -0.367000
     38 O38         28.0620   -13.1000    15.3150 os         1 N5K      -0.441300
     39 C39         27.7650   -13.8800    14.1410 c3         1 N5K       0.161900
     40 N40         29.8710    -9.4040    17.2160 nv         1 N5K      -1.068900
     41 H1          31.7510   -10.9570     8.4980 ha         1 N5K       0.130000
     42 H2          29.6280   -11.9520     7.8230 ha         1 N5K       0.140000
     43 H3          33.6510   -10.6570     9.4800 h1         1 N5K       0.094700
     44 H4          32.7350    -5.3790     6.9620 ha         1 N5K       0.146000
     45 H5          32.7870    -5.1940     9.4590 ha         1 N5K       0.129000
     46 H6          33.1210    -7.1790    10.8600 ha         1 N5K       0.132000
     47 H7          38.0830    -9.5700    10.9700 ha         1 N5K       0.142000
     48 H8          37.6420    -9.1040    13.3920 ha         1 N5K       0.136000
     49 H9          35.2710    -9.0000    14.1650 h4         1 N5K       0.032100
     50 H10         27.9970   -11.1390    11.7080 ha         1 N5K       0.144000
     51 H11         30.6680    -9.0760    12.7300 hn         1 N5K       0.509000
     52 H12         25.8800   -10.5670     9.5980 hn         1 N5K       0.467500
     53 H13         26.4550   -10.6270     8.0260 hn         1 N5K       0.467500
     54 H14         32.4620    -9.8130    11.9300 hn         1 N5K       0.529000
     55 H15         27.2080   -14.7380    14.5060 h1         1 N5K       0.058033
     56 H16         27.1620   -13.3030    13.4420 h1         1 N5K       0.058033
     57 H17         28.6830   -14.2010    13.6520 h1         1 N5K       0.058033
     58 H18         30.3120    -8.5040    17.1300 hn         1 N5K       0.508500
     59 H19         29.5120    -9.6980    18.1080 hn         1 N5K       0.508500
@<TRIPOS>BOND
     1     1     2 ar  
     2     1    19 ar  
     3     1    27 1   
     4     2     3 ar  
     5     2    41 1   
     6     3    17 ar  
     7     3    42 1   
     8     4     5 1   
     9     4    11 1   
    10     4    27 1   
    11     4    43 1   
    12     5     6 ar  
    13     5    10 ar  
    14     6     7 ar  
    15     6    28 1   
    16     7     8 ar  
    17     7    29 1   
    18     8     9 ar  
    19     8    44 1   
    20     9    10 ar  
    21     9    45 1   
    22    10    46 1   
    23    11    12 ar  
    24    11    25 ar  
    25    12    13 ar  
    26    12    26 1   
    27    13    14 ar  
    28    13    47 1   
    29    14    15 ar  
    30    14    48 1   
    31    15    25 ar  
    32    15    49 1   
    33    16    28 1   
    34    16    29 1   
    35    16    30 1   
    36    16    31 1   
    37    17    18 ar  
    38    17    21 1   
    39    18    19 ar  
    40    18    50 1   
    41    19    20 1   
    42    20    32 1   
    43    20    51 1   
    44    21    22 2   
    45    21    23 2   
    46    21    24 1   
    47    24    52 1   
    48    24    53 1   
    49    27    54 1   
    50    32    33 ar  
    51    32    37 ar  
    52    33    34 ar  
    53    34    35 ar  
    54    34    40 1   
    55    35    36 ar  
    56    36    37 ar  
    57    36    38 1   
    58    38    39 1   
    59    39    55 1   
    60    39    56 1   
    61    39    57 1   
    62    40    58 1   
    63    40    59 1   
@<TRIPOS>SUBSTRUCTURE
     1 N5K         1 TEMP              0 ****  ****    0 ROOT
