@<TRIPOS>MOLECULE
N5L
   33    34     1     0     0
SMALL
No Charge or Current Charge


@<TRIPOS>ATOM
      1 N1           7.6370     0.5390    17.1300 nb         1 N5L      -0.624000
      2 C4           8.2380    -0.0250    18.2000 ca         1 N5L       0.276900
      3 C5           7.7420     0.0720    19.5180 ca         1 N5L      -0.059000
      4 C6           8.9830    -0.0210    21.7360 c          1 N5L       0.599100
      5 C7           9.7290    -1.0230    22.6260 c3         1 N5L      -0.108100
      6 C8          11.2370    -0.8750    22.4570 ca         1 N5L      -0.068300
      7 C10         13.3470     0.1760    23.0960 ca         1 N5L      -0.100000
      8 C13         11.9240    -1.6420    21.4930 ca         1 N5L      -0.097000
      9 C12         13.3130    -1.4990    21.3350 ca         1 N5L       0.125000
     10 C11         14.0260    -0.5920    22.1350 ca         1 N5L      -0.096000
     11 C9          11.9570     0.0350    23.2560 ca         1 N5L      -0.083000
     12 O            8.8660     1.1610    22.0410 o          1 N5L      -0.575100
     13 N2           8.4920    -0.5500    20.5520 ns         1 N5L      -0.166000
     14 C1           6.5210     0.7650    19.7500 ca         1 N5L      -0.088300
     15 C            5.8800     0.8240    21.1450 c3         1 N5L      -0.042800
     16 C3           6.4930     1.2270    17.3560 ca         1 N5L       0.266900
     17 C2           5.8870     1.3740    18.6360 ca         1 N5L       0.247000
     18 N            4.7070     2.0940    18.7900 nv         1 N5L      -1.072000
     19 H1           9.1630    -0.5630    17.9970 h4         1 N5L       0.021100
     20 H2           9.4560    -0.8330    23.6710 hc         1 N5L       0.066700
     21 H3           9.4360    -2.0450    22.3570 hc         1 N5L       0.066700
     22 H4          13.8970     0.8810    23.7160 ha         1 N5L       0.121000
     23 H5          11.3850    -2.3480    20.8670 ha         1 N5L       0.125000
     24 H6          15.1000    -0.4840    22.0090 ha         1 N5L       0.131000
     25 H7          11.4390     0.6360    24.0000 ha         1 N5L       0.122000
     26 H8           8.7200    -1.5230    20.3870 hn         1 N5L       0.155000
     27 H9           4.7880     0.7480    21.0950 hc         1 N5L       0.048367
     28 H10          6.2050    -0.0010    21.7880 hc         1 N5L       0.048367
     29 H11          6.1270     1.7650    21.6510 hc         1 N5L       0.048367
     30 H12          6.0330     1.6780    16.4760 h4         1 N5L       0.019100
     31 H13          4.3590     2.3070    19.7230 hn         1 N5L       0.453000
     32 H14          4.3210     2.6270    18.0100 hn         1 N5L       0.453000
     33 Cl          14.1600    -2.4600    20.1300 cl         1 N5L      -0.213000
@<TRIPOS>BOND
     1     1     2 ar  
     2     1    16 ar  
     3     2     3 ar  
     4     2    19 1   
     5     3    13 1   
     6     3    14 ar  
     7     4     5 1   
     8     4    12 2   
     9     4    13 1   
    10     5     6 1   
    11     5    20 1   
    12     5    21 1   
    13     6     8 ar  
    14     6    11 ar  
    15     7    10 ar  
    16     7    11 ar  
    17     7    22 1   
    18     8     9 ar  
    19     8    23 1   
    20     9    10 ar  
    21     9    33 1   
    22    10    24 1   
    23    11    25 1   
    24    13    26 1   
    25    14    15 1   
    26    14    17 ar  
    27    15    27 1   
    28    15    28 1   
    29    15    29 1   
    30    16    17 ar  
    31    16    30 1   
    32    17    18 1   
    33    18    31 1   
    34    18    32 1   
@<TRIPOS>SUBSTRUCTURE
     1 N5L         1 TEMP              0 ****  ****    0 ROOT
