@<TRIPOS>MOLECULE
N5L
   33    34     1     0     0
SMALL
abcg2


@<TRIPOS>ATOM
      1 N1           7.1020     0.1880    17.0930 nb         1 N5L      -0.624000
      2 C4           7.7680    -0.4100    18.0790 ca         1 N5L       0.276900
      3 C5           7.5130    -0.1470    19.4240 ca         1 N5L      -0.059000
      4 C6           9.1170    -0.2620    21.2790 c          1 N5L       0.599100
      5 C7           9.8250    -1.2280    22.2240 c3         1 N5L      -0.108100
      6 C8          11.2950    -0.9260    22.3470 ca         1 N5L      -0.068300
      7 C10         13.1310     0.2270    23.4160 ca         1 N5L      -0.100000
      8 C13         12.1940    -1.4930    21.4440 ca         1 N5L      -0.097000
      9 C12         13.5430    -1.1910    21.5410 ca         1 N5L       0.125000
     10 C11         14.0320    -0.3330    22.5170 ca         1 N5L      -0.096000
     11 C9          11.7750    -0.0650    23.3330 ca         1 N5L      -0.083000
     12 O            9.2800     0.9500    21.3420 o          1 N5L      -0.575100
     13 N2           8.2690    -0.8520    20.3980 ns         1 N5L      -0.166000
     14 C1           6.5210     0.7630    19.7890 ca         1 N5L      -0.088300
     15 C            6.1390     1.0320    21.2110 c3         1 N5L      -0.042800
     16 C3           6.1760     1.0860    17.4210 ca         1 N5L       0.266900
     17 C2           5.8460     1.4160    18.7410 ca         1 N5L       0.247000
     18 N            4.8200     2.3100    19.0030 nv         1 N5L      -1.072000
     19 H1           8.5360    -1.1250    17.8080 h4         1 N5L       0.021100
     20 H2           9.3370    -1.1140    23.1960 hc         1 N5L       0.066700
     21 H3           9.6720    -2.2570    21.8990 hc         1 N5L       0.066700
     22 H4          13.4950     0.8950    24.1860 ha         1 N5L       0.121000
     23 H5          11.8420    -2.1660    20.6730 ha         1 N5L       0.125000
     24 H6          15.0890    -0.1140    22.5750 ha         1 N5L       0.131000
     25 H7          11.0830     0.3750    24.0400 ha         1 N5L       0.122000
     26 H8           8.3050    -1.8570    20.3150 hn         1 N5L       0.155000
     27 H9           5.0520     1.0200    21.3170 hc         1 N5L       0.048367
     28 H10          6.5610     0.2910    21.8840 hc         1 N5L       0.048367
     29 H11          6.4880     2.0170    21.5340 hc         1 N5L       0.048367
     30 H12          5.6540     1.5780    16.6060 h4         1 N5L       0.019100
     31 H13          4.8910     2.8300    19.8650 hn         1 N5L       0.453000
     32 H14          4.5540     2.8990    18.2260 hn         1 N5L       0.453000
     33 CL          14.6620    -1.9140    20.4000 cl         1 N5L      -0.213000
@<TRIPOS>BOND
     1     1     2 ar  
     2     1    16 ar  
     3     2     3 ar  
     4     2    19 1   
     5     3    13 1   
     6     3    14 ar  
     7     4     5 1   
     8     4    12 2   
     9     4    13 1   
    10     5     6 1   
    11     5    20 1   
    12     5    21 1   
    13     6     8 ar  
    14     6    11 ar  
    15     7    10 ar  
    16     7    11 ar  
    17     7    22 1   
    18     8     9 ar  
    19     8    23 1   
    20     9    10 ar  
    21     9    33 1   
    22    10    24 1   
    23    11    25 1   
    24    13    26 1   
    25    14    15 1   
    26    14    17 ar  
    27    15    27 1   
    28    15    28 1   
    29    15    29 1   
    30    16    17 ar  
    31    16    30 1   
    32    17    18 1   
    33    18    31 1   
    34    18    32 1   
@<TRIPOS>SUBSTRUCTURE
     1 N5L         1 TEMP              0 ****  ****    0 ROOT
