@<TRIPOS>MOLECULE
N5N
   72    75     1     0     0
SMALL
No Charge or Current Charge


@<TRIPOS>ATOM
      1 N1           1.5260    -2.1690    -0.4180 n          1 N5N      -0.326800
      2 C2           2.4640    -3.1420    -0.9900 cx         1 N5N       0.052700
      3 C3           1.1990    -0.9480    -1.0790 c          1 N5N       0.575100
      4 C4           0.7140    -2.7130     0.7190 c3         1 N5N      -0.067000
      5 C5           3.8300    -2.8090    -1.5450 cx         1 N5N      -0.134400
      6 C6           3.7110    -3.5840    -0.2590 cx         1 N5N      -0.134400
      7 C7           0.1520     0.0430    -0.4470 c3         1 N5N       0.158500
      8 O8           1.7370    -0.6490    -2.1430 o          1 N5N      -0.657100
      9 C9           1.2990    -2.4980     2.1350 c          1 N5N       0.713000
     10 N10          0.3740     1.4720    -0.8370 n7         1 N5N      -0.881300
     11 C11         -1.2800    -0.3160    -0.9160 c3         1 N5N      -0.153400
     12 O12          1.9680    -3.3920     2.6330 o          1 N5N      -0.718000
     13 O13          1.0050    -1.4690     2.7220 o          1 N5N      -0.718000
     14 S14          1.3870     2.4440     0.0700 sy         1 N5N       1.162600
     15 C15         -2.3200     0.2480     0.0460 c          1 N5N       0.605100
     16 C16          2.8460     1.4220     0.2970 ca         1 N5N      -0.285500
     17 O17          1.7040     3.5590    -0.8230 o          1 N5N      -0.537000
     18 O18          0.6950     2.6500     1.3440 o          1 N5N      -0.537000
     19 N19         -3.0160     1.3430    -0.4170 ns         1 N5N      -0.506900
     20 O20         -2.5490    -0.2630     1.1320 o          1 N5N      -0.584100
     21 C21          3.8390     1.3780    -0.7030 ca         1 N5N       0.002000
     22 C22          3.0220     0.6970     1.4930 ca         1 N5N      -0.007000
     23 C23         -4.0730     2.0420     0.3190 c3         1 N5N       0.107000
     24 C24          4.9960     0.5980    -0.5140 ca         1 N5N      -0.071000
     25 C25          4.1710    -0.0910     1.6740 ca         1 N5N      -0.119000
     26 C26         -5.5050     1.5570    -0.0440 c6         1 N5N      -0.115700
     27 C27          5.1590    -0.1460     0.6750 ca         1 N5N       0.005000
     28 C28          5.9870     0.5440    -1.5140 ca         1 N5N      -0.083000
     29 C29         -5.7290     0.0510     0.2970 c6         1 N5N       0.215800
     30 C30         -6.5790     2.4370     0.6530 c6         1 N5N      -0.073400
     31 C31          6.3070    -0.9390     0.8550 ca         1 N5N      -0.106000
     32 C32          7.1320    -0.2510    -1.3290 ca         1 N5N      -0.134000
     33 N33         -7.1210    -0.3830    -0.0270 nh         1 N5N      -0.740600
     34 C34         -8.0040     1.9170     0.3480 c6         1 N5N      -0.106400
     35 C35          7.2910    -0.9920    -0.1470 ca         1 N5N      -0.108000
     36 C36         -8.1310     0.4180     0.7140 c6         1 N5N       0.210800
     37 C37         -7.4240    -0.8660    -1.2560 c2         1 N5N       0.784100
     38 N38         -8.3290    -1.8220    -1.2020 nv         1 N5N      -1.061200
     39 N39         -6.7490    -0.6380    -2.2850 n2         1 N5N      -0.884100
     40 H2           1.8830    -3.9010    -1.5140 h1         1 N5N       0.062700
     41 H41C        -0.2970    -2.2960     0.7140 h1         1 N5N       0.042700
     42 H42C         0.5950    -3.7950     0.5780 h1         1 N5N       0.042700
     43 H51C         4.1560    -3.3450    -2.4330 hc         1 N5N       0.077450
     44 H52C         4.1660    -1.7800    -1.4890 hc         1 N5N       0.077450
     45 H61C         3.9760    -3.0680     0.6600 hc         1 N5N       0.077450
     46 H62C         3.9550    -4.6430    -0.2750 hc         1 N5N       0.077450
     47 H7           0.2030    -0.0860     0.6450 h1         1 N5N       0.149700
     48 H10          0.8680     1.4690    -1.7320 hn         1 N5N       0.484000
     49 H111        -1.4340     0.0790    -1.9270 hc         1 N5N       0.064700
     50 H112        -1.3950    -1.4050    -0.9390 hc         1 N5N       0.064700
     51 H19         -2.7350     1.7050    -1.3200 hn         1 N5N       0.310500
     52 H21          3.7170     1.9440    -1.6240 ha         1 N5N       0.128000
     53 H22          2.2760     0.7420     2.2860 ha         1 N5N       0.201000
     54 H231        -3.9110     1.9220     1.3990 h1         1 N5N       0.057200
     55 H232        -3.9940     3.1130     0.0900 h1         1 N5N       0.057200
     56 H25          4.2920    -0.6570     2.5950 ha         1 N5N       0.124000
     57 H26         -5.6060     1.6880    -1.1300 hc         1 N5N       0.061700
     58 H28          5.8700     1.1110    -2.4350 ha         1 N5N       0.107000
     59 H291        -4.9970    -0.5770    -0.2320 h1         1 N5N       0.073700
     60 H292        -5.5410    -0.0900     1.3720 h1         1 N5N       0.073700
     61 H301        -6.4150     2.4350     1.7400 hc         1 N5N       0.041200
     62 H302        -6.4860     3.4810     0.3240 hc         1 N5N       0.041200
     63 H31          6.4370    -1.5160     1.7680 ha         1 N5N       0.113000
     64 H32          7.8940    -0.2930    -2.1040 ha         1 N5N       0.101000
     65 H341        -8.7440     2.5000     0.9110 hc         1 N5N       0.044200
     66 H342        -8.2360     2.0590    -0.7170 hc         1 N5N       0.044200
     67 H35          8.1770    -1.6080    -0.0060 ha         1 N5N       0.101000
     68 H361        -9.1530     0.0680     0.5060 h1         1 N5N       0.049200
     69 H362        -7.9700     0.3090     1.7970 h1         1 N5N       0.049200
     70 H381        -8.5060    -2.0470    -0.2340 hn         1 N5N       0.445000
     71 H382        -8.0880    -2.6240    -1.7650 hn         1 N5N       0.445000
     72 H39         -7.1610    -1.1910    -3.0410 hn         1 N5N       0.369400
@<TRIPOS>BOND
     1     1     2 1   
     2     1     3 1   
     3     1     4 1   
     4     2     5 1   
     5     2     6 1   
     6     2    40 1   
     7     3     7 1   
     8     3     8 2   
     9     4     9 1   
    10     4    41 1   
    11     4    42 1   
    12     5     6 1   
    13     5    43 1   
    14     5    44 1   
    15     6    45 1   
    16     6    46 1   
    17     7    10 1   
    18     7    11 1   
    19     7    47 1   
    20     9    12 1   
    21     9    13 1   
    22    10    14 1   
    23    10    48 1   
    24    11    15 1   
    25    11    49 1   
    26    11    50 1   
    27    14    16 1   
    28    14    17 2   
    29    14    18 2   
    30    15    19 1   
    31    15    20 2   
    32    16    21 ar  
    33    16    22 ar  
    34    19    23 1   
    35    19    51 1   
    36    21    24 ar  
    37    21    52 1   
    38    22    25 ar  
    39    22    53 1   
    40    23    26 1   
    41    23    54 1   
    42    23    55 1   
    43    24    27 ar  
    44    24    28 ar  
    45    25    27 ar  
    46    25    56 1   
    47    26    29 1   
    48    26    30 1   
    49    26    57 1   
    50    27    31 ar  
    51    28    32 ar  
    52    28    58 1   
    53    29    33 1   
    54    29    59 1   
    55    29    60 1   
    56    30    34 1   
    57    30    61 1   
    58    30    62 1   
    59    31    35 ar  
    60    31    63 1   
    61    32    35 ar  
    62    32    64 1   
    63    33    36 1   
    64    33    37 1   
    65    34    36 1   
    66    34    65 1   
    67    34    66 1   
    68    35    67 1   
    69    36    68 1   
    70    36    69 1   
    71    37    38 1   
    72    37    39 2   
    73    38    70 1   
    74    38    71 1   
    75    39    72 1   
@<TRIPOS>SUBSTRUCTURE
     1 N5N         1 TEMP              0 ****  ****    0 ROOT
