@<TRIPOS>MOLECULE
N5N
   72    75     1     0     0
SMALL
bcc


@<TRIPOS>ATOM
      1 N1           1.0750    -2.8070     0.2990 n          1 N5N      -0.393800
      2 C2           1.8710    -3.8640    -0.2560 cx         1 N5N       0.052700
      3 C3           1.0260    -1.6490    -0.3830 c          1 N5N       0.642100
      4 C4           0.3840    -3.0410     1.5520 c3         1 N5N      -0.067000
      5 C5           3.3570    -3.7370    -0.3050 cx         1 N5N      -0.134400
      6 C6           2.7220    -4.7070     0.6410 cx         1 N5N      -0.134400
      7 C7           0.1290    -0.5380     0.1720 c3         1 N5N       0.158500
      8 O8           1.6060    -1.4720    -1.4440 o          1 N5N      -0.657100
      9 C9           1.1130    -2.5580     2.8260 c          1 N5N       0.923600
     10 N10          0.5220     0.7690    -0.3180 n7         1 N5N      -0.826100
     11 C11         -1.3140    -0.7710    -0.2890 c3         1 N5N      -0.153400
     12 O12          0.4980    -2.7840     3.8840 o          1 N5N      -0.823300
     13 O13          2.2180    -2.0030     2.6940 o          1 N5N      -0.823300
     14 S14          1.5420     1.7690     0.4920 sy         1 N5N       1.304200
     15 C15         -2.2580     0.1550     0.4510 c          1 N5N       0.672100
     16 C16          3.2030     1.2660     0.1350 ca         1 N5N      -0.285500
     17 O17          1.3520     3.0870    -0.0890 o          1 N5N      -0.607800
     18 O18          1.3030     1.5590     1.9110 o          1 N5N      -0.607800
     19 N19         -3.0270     0.9300    -0.3260 ns         1 N5N      -0.573900
     20 O20         -2.2960     0.1560     1.6740 o          1 N5N      -0.584100
     21 C21          3.9570     2.0060    -0.7340 ca         1 N5N      -0.016000
     22 C22          3.7130     0.1150     0.7720 ca         1 N5N      -0.025000
     23 C23         -4.0350     1.8440     0.1620 c3         1 N5N       0.107000
     24 C24          5.2850     1.6160    -1.0140 ca         1 N5N      -0.071000
     25 C25          4.9970    -0.2690     0.5110 ca         1 N5N      -0.137000
     26 C26         -5.4440     1.4710    -0.2860 c6         1 N5N      -0.115700
     27 C27          5.8160     0.4630    -0.3810 ca         1 N5N       0.005000
     28 C28          6.0990     2.3530    -1.9070 ca         1 N5N      -0.101000
     29 C29         -5.8560     0.0870     0.2120 c6         1 N5N       0.215800
     30 C30         -6.4450     2.5140     0.2090 c6         1 N5N      -0.073400
     31 C31          7.1470     0.0800    -0.6620 ca         1 N5N      -0.124000
     32 C32          7.3830     1.9570    -2.1610 ca         1 N5N      -0.152000
     33 N33         -7.2130    -0.2490    -0.1780 nh         1 N5N      -0.740600
     34 C34         -7.8760     2.1220    -0.1430 c6         1 N5N      -0.106400
     35 C35          7.9120     0.8100    -1.5320 ca         1 N5N      -0.126000
     36 C36         -8.1840     0.7080     0.3380 c6         1 N5N       0.210800
     37 C37         -7.3970    -0.8600    -1.3990 c2         1 N5N       0.784100
     38 N38         -8.7180    -1.1030    -1.7280 nv         1 N5N      -0.950800
     39 N39         -6.3930    -1.1490    -2.1430 n2         1 N5N      -0.884100
     40 H2           1.4050    -4.3810    -1.0910 h1         1 N5N       0.062700
     41 H41C        -0.6140    -2.6000     1.5380 h1         1 N5N       0.042700
     42 H42C         0.2120    -4.1150     1.6370 h1         1 N5N       0.042700
     43 H51C         3.8720    -4.1070    -1.1820 hc         1 N5N       0.077450
     44 H52C         3.7810    -2.8420     0.1300 hc         1 N5N       0.077450
     45 H61C         2.7610    -4.4670     1.6940 hc         1 N5N       0.077450
     46 H62C         2.7710    -5.7650     0.4200 hc         1 N5N       0.077450
     47 H7           0.1600    -0.5080     1.2600 h1         1 N5N       0.149700
     48 H10          0.6340     0.8280    -1.3250 hn         1 N5N       0.428800
     49 H111        -1.3720    -0.6470    -1.3720 hc         1 N5N       0.064700
     50 H112        -1.6310    -1.7950    -0.0800 hc         1 N5N       0.064700
     51 H19         -2.9040     0.8730    -1.3230 hn         1 N5N       0.310500
     52 H21          3.5580     2.8910    -1.2120 ha         1 N5N       0.146000
     53 H22          3.0990    -0.4720     1.4480 ha         1 N5N       0.219000
     54 H231        -3.9780     1.8600     1.2510 h1         1 N5N       0.057200
     55 H232        -3.7990     2.8540    -0.1850 h1         1 N5N       0.057200
     56 H25          5.4030    -1.1480     0.9960 ha         1 N5N       0.142000
     57 H26         -5.4710     1.4530    -1.3830 hc         1 N5N       0.061700
     58 H28          5.6910     3.2340    -2.3870 ha         1 N5N       0.125000
     59 H291        -5.1820    -0.6780    -0.1640 h1         1 N5N       0.073700
     60 H292        -5.8090     0.0670     1.3080 h1         1 N5N       0.073700
     61 H301        -6.3540     2.6060     1.2990 hc         1 N5N       0.041200
     62 H302        -6.2050     3.4960    -0.2070 hc         1 N5N       0.041200
     63 H31          7.5540    -0.8000    -0.1790 ha         1 N5N       0.131000
     64 H32          8.0000     2.5210    -2.8470 ha         1 N5N       0.119000
     65 H341        -8.5850     2.8220     0.3040 hc         1 N5N       0.044200
     66 H342        -8.0200     2.1730    -1.2270 hc         1 N5N       0.044200
     67 H35          8.9300     0.5090    -1.7410 ha         1 N5N       0.119000
     68 H361        -9.1970     0.4240     0.0650 h1         1 N5N       0.049200
     69 H362        -8.1350     0.6740     1.4310 h1         1 N5N       0.049200
     70 H381        -9.3210    -1.3830    -0.9700 hn         1 N5N       0.389800
     71 H382        -8.8370    -1.7070    -2.5260 hn         1 N5N       0.389800
     72 H39         -6.6910    -1.7020    -2.9390 hn         1 N5N       0.369400
@<TRIPOS>BOND
     1     1     2 1   
     2     1     3 1   
     3     1     4 1   
     4     2     5 1   
     5     2     6 1   
     6     2    40 1   
     7     3     7 1   
     8     3     8 2   
     9     4     9 1   
    10     4    41 1   
    11     4    42 1   
    12     5     6 1   
    13     5    43 1   
    14     5    44 1   
    15     6    45 1   
    16     6    46 1   
    17     7    10 1   
    18     7    11 1   
    19     7    47 1   
    20     9    12 1   
    21     9    13 1   
    22    10    14 1   
    23    10    48 1   
    24    11    15 1   
    25    11    49 1   
    26    11    50 1   
    27    14    16 1   
    28    14    17 2   
    29    14    18 2   
    30    15    19 1   
    31    15    20 2   
    32    16    21 ar  
    33    16    22 ar  
    34    19    23 1   
    35    19    51 1   
    36    21    24 ar  
    37    21    52 1   
    38    22    25 ar  
    39    22    53 1   
    40    23    26 1   
    41    23    54 1   
    42    23    55 1   
    43    24    27 ar  
    44    24    28 ar  
    45    25    27 ar  
    46    25    56 1   
    47    26    29 1   
    48    26    30 1   
    49    26    57 1   
    50    27    31 ar  
    51    28    32 ar  
    52    28    58 1   
    53    29    33 1   
    54    29    59 1   
    55    29    60 1   
    56    30    34 1   
    57    30    61 1   
    58    30    62 1   
    59    31    35 ar  
    60    31    63 1   
    61    32    35 ar  
    62    32    64 1   
    63    33    36 1   
    64    33    37 1   
    65    34    36 1   
    66    34    65 1   
    67    34    66 1   
    68    35    67 1   
    69    36    68 1   
    70    36    69 1   
    71    37    38 1   
    72    37    39 2   
    73    38    70 1   
    74    38    71 1   
    75    39    72 1   
@<TRIPOS>SUBSTRUCTURE
     1 N5N         1 TEMP              0 ****  ****    0 ROOT
