@<TRIPOS>MOLECULE
N5O
   39    41     1     0     0
SMALL
No Charge or Current Charge


@<TRIPOS>ATOM
      1 O53         -5.4100     0.7420    -1.9240 oh         1 N5O      -0.667000
      2 C52         -4.4750     1.7840    -1.5960 c3         1 N5O       0.135600
      3 C51         -3.9680     1.6290    -0.1400 c3         1 N5O       0.104000
      4 N5          -3.2880     0.3490     0.1040 ns         1 N5O      -0.491900
      5 C5          -2.0160     0.0410    -0.3350 c          1 N5O       0.596100
      6 O5          -1.3120     0.8380    -0.9430 o          1 N5O      -0.596100
      7 C4          -1.6940    -1.4430     0.0310 c5         1 N5O       0.076300
      8 O4          -0.4450    -1.9030    -0.5670 os         1 N5O      -0.411000
      9 C3          -1.5210    -1.5770     1.5850 c5         1 N5O       0.093300
     10 O3          -2.6700    -2.1680     2.2200 oh         1 N5O      -0.714000
     11 C2          -0.2760    -2.5100     1.7090 c5         1 N5O       0.101300
     12 O2          -0.7000    -3.8800     1.6190 oh         1 N5O      -0.701000
     13 C1           0.5550    -2.0380     0.4670 c5         1 N5O       0.322300
     14 N9           1.3220    -0.7860     0.5660 na         1 N5O      -0.315300
     15 C8           1.4490     0.0360     1.6950 cc         1 N5O       0.420700
     16 N7           2.2470     1.0930     1.4500 nd         1 N5O      -0.559100
     17 C7           2.6290     0.9060     0.1190 ca         1 N5O      -0.095600
     18 C9           2.0790    -0.2270    -0.4270 ca         1 N5O       0.115500
     19 N3           2.3240    -0.6020    -1.6980 nb         1 N5O      -0.223000
     20 C10          3.1380     0.2160    -2.4070 ca         1 N5O       0.179900
     21 N1           3.7260     1.3550    -1.9670 nb         1 N5O      -0.303000
     22 C6           3.4690     1.6960    -0.6940 ca         1 N5O       0.447900
     23 N6           4.0600     2.8370    -0.2490 nv         1 N5O      -1.062900
     24 HO53        -5.6900     0.8890    -2.8560 ho         1 N5O       0.448000
     25 H521        -4.9500     2.7690    -1.7000 h1         1 N5O       0.033700
     26 H522        -3.6170     1.7570    -2.2810 h1         1 N5O       0.033700
     27 H511        -4.8190     1.7130     0.5480 h1         1 N5O       0.063700
     28 H512        -3.2740     2.4490     0.0870 h1         1 N5O       0.063700
     29 HN5         -3.7970    -0.3850     0.5850 hn         1 N5O       0.332500
     30 H4          -2.5100    -2.0740    -0.3430 h1         1 N5O       0.090700
     31 H3          -1.3040    -0.5930     2.0270 h1         1 N5O       0.068700
     32 HO3         -2.7000    -1.8470     3.1550 ho         1 N5O       0.524000
     33 H2           0.2690    -2.3440     2.6490 h1         1 N5O       0.081700
     34 HO2         -1.6750    -3.8240     1.7900 ho         1 N5O       0.524000
     35 H1           1.2870    -2.8070     0.1860 h2         1 N5O       0.128700
     36 H8           0.9610    -0.1780     2.6390 h5         1 N5O       0.099800
     37 H6           3.3420    -0.0720    -3.4370 h5         1 N5O       0.045100
     38 HN61         4.3970     3.5010    -0.9410 hn         1 N5O       0.505000
     39 HN62         3.7120     3.2260     0.6250 hn         1 N5O       0.505000
@<TRIPOS>BOND
     1     1     2 1   
     2     1    24 1   
     3     2     3 1   
     4     2    25 1   
     5     2    26 1   
     6     3     4 1   
     7     3    27 1   
     8     3    28 1   
     9     4     5 1   
    10     4    29 1   
    11     5     6 2   
    12     5     7 1   
    13     7     8 1   
    14     7     9 1   
    15     7    30 1   
    16     8    13 1   
    17     9    10 1   
    18     9    11 1   
    19     9    31 1   
    20    10    32 1   
    21    11    12 1   
    22    11    13 1   
    23    11    33 1   
    24    12    34 1   
    25    13    14 1   
    26    13    35 1   
    27    14    15 1   
    28    14    18 1   
    29    15    16 2   
    30    15    36 1   
    31    16    17 1   
    32    17    18 ar  
    33    17    22 ar  
    34    18    19 ar  
    35    19    20 ar  
    36    20    21 ar  
    37    20    37 1   
    38    21    22 ar  
    39    22    23 1   
    40    23    38 1   
    41    23    39 1   
@<TRIPOS>SUBSTRUCTURE
     1 N5O         1 TEMP              0 ****  ****    0 ROOT
