@<TRIPOS>MOLECULE
N5O
   39    41     1     0     0
SMALL
bcc


@<TRIPOS>ATOM
      1 O53         -6.5880     0.2290    -0.7710 oh         1 N5O      -0.604800
      2 C52         -5.8510     1.4100    -0.5540 c3         1 N5O       0.112400
      3 C51         -4.8980     1.1800     0.6020 c3         1 N5O       0.104000
      4 N5          -3.9370     0.1290     0.3450 ns         1 N5O      -0.558900
      5 C5          -2.7520     0.3400    -0.2390 c          1 N5O       0.663100
      6 O5          -2.3550     1.4350    -0.6080 o          1 N5O      -0.596100
      7 C4          -1.8990    -0.9160    -0.3490 c5         1 N5O       0.053100
      8 O4          -0.8580    -0.7220    -1.2800 os         1 N5O      -0.364600
      9 C3          -1.2080    -1.2570     0.9770 c5         1 N5O       0.070100
     10 O3          -2.0520    -2.0310     1.7750 oh         1 N5O      -0.591800
     11 C2           0.0340    -2.0020     0.4760 c5         1 N5O       0.078100
     12 O2          -0.2870    -3.3090     0.0920 oh         1 N5O      -0.578800
     13 C1           0.3560    -1.2160    -0.7930 c5         1 N5O       0.269800
     14 N9           1.2620    -0.1070    -0.5280 na         1 N5O      -0.286000
     15 C8           0.9830     1.2280    -0.4030 cc         1 N5O       0.420700
     16 N7           2.0390     1.9510    -0.1650 nd         1 N5O      -0.559100
     17 C7           3.0710     1.0520    -0.1310 ca         1 N5O      -0.226200
     18 C9           2.6080    -0.2350    -0.3560 ca         1 N5O       0.443800
     19 N3           3.3370    -1.3490    -0.3940 nb         1 N5O      -0.749000
     20 C10          4.6190    -1.0970    -0.1890 ca         1 N5O       0.705900
     21 N1           5.2050     0.0750     0.0370 nb         1 N5O      -0.829000
     22 C6           4.4570     1.1840     0.0750 ca         1 N5O       0.776200
     23 N6           5.0440     2.3580     0.3160 nv         1 N5O      -0.952500
     24 HO53        -7.1050     0.3390    -1.5740 ho         1 N5O       0.409000
     25 H521        -6.4990     2.2580    -0.2970 h1         1 N5O       0.033700
     26 H522        -5.2770     1.7020    -1.4410 h1         1 N5O       0.033700
     27 H511        -5.4550     0.9120     1.5000 h1         1 N5O       0.063700
     28 H512        -4.3700     2.1080     0.8180 h1         1 N5O       0.063700
     29 HN5         -4.2050    -0.8150     0.5690 hn         1 N5O       0.332500
     30 H4          -2.5270    -1.7610    -0.6610 h1         1 N5O       0.090700
     31 H3          -0.8960    -0.3380     1.4880 h1         1 N5O       0.068700
     32 HO3         -1.7710    -1.9580     2.6930 ho         1 N5O       0.425000
     33 H2           0.8590    -1.9740     1.1970 h1         1 N5O       0.081700
     34 HO2         -0.8950    -3.6700     0.7490 ho         1 N5O       0.425000
     35 H1           0.8360    -1.8490    -1.5440 h2         1 N5O       0.128700
     36 H8          -0.0220     1.6090    -0.5060 h5         1 N5O       0.099800
     37 H6           5.2840    -1.9540    -0.2070 h5         1 N5O       0.045100
     38 HN61         6.0460     2.4170     0.3710 hn         1 N5O       0.449800
     39 HN62         4.5230     3.2160     0.2620 hn         1 N5O       0.449800
@<TRIPOS>BOND
     1     1     2 1   
     2     1    24 1   
     3     2     3 1   
     4     2    25 1   
     5     2    26 1   
     6     3     4 1   
     7     3    27 1   
     8     3    28 1   
     9     4     5 1   
    10     4    29 1   
    11     5     6 2   
    12     5     7 1   
    13     7     8 1   
    14     7     9 1   
    15     7    30 1   
    16     8    13 1   
    17     9    10 1   
    18     9    11 1   
    19     9    31 1   
    20    10    32 1   
    21    11    12 1   
    22    11    13 1   
    23    11    33 1   
    24    12    34 1   
    25    13    14 1   
    26    13    35 1   
    27    14    15 1   
    28    14    18 1   
    29    15    16 2   
    30    15    36 1   
    31    16    17 1   
    32    17    18 ar  
    33    17    22 ar  
    34    18    19 ar  
    35    19    20 ar  
    36    20    21 ar  
    37    20    37 1   
    38    21    22 ar  
    39    22    23 1   
    40    23    38 1   
    41    23    39 1   
@<TRIPOS>SUBSTRUCTURE
     1 N5O         1 TEMP              0 ****  ****    0 ROOT
