@<TRIPOS>MOLECULE
N5Q
   39    42     1     0     0
SMALL
No Charge or Current Charge


@<TRIPOS>ATOM
      1 C12         41.9130    31.7030    11.9030 cc         1 N5Q       0.756300
      2 C14         39.9820    30.9520    11.1370 cd         1 N5Q       0.399500
      3 C15         39.6460    31.1290    12.4640 cc         1 N5Q      -0.293000
      4 C17         39.0640    30.4540    10.0840 ca         1 N5Q      -0.125500
      5 C18         39.5100    30.3100     8.7480 ca         1 N5Q      -0.048000
      6 C19         38.6430    29.8380     7.7440 ca         1 N5Q      -0.045000
      7 C22         36.9040    28.8940     5.7390 ca         1 N5Q      -0.108000
      8 C23         36.4440    29.0310     7.0600 ca         1 N5Q      -0.111000
      9 C26         37.7250    30.1130    10.3870 ca         1 N5Q      -0.090000
     10 C04         46.1860    32.1290     8.8510 ca         1 N5Q      -0.289600
     11 C05         46.4920    31.7450    10.1770 ca         1 N5Q      -0.007000
     12 C06         45.4910    31.7260    11.1620 ca         1 N5Q      -0.260000
     13 C07         44.1740    32.0750    10.8450 ca         1 N5Q       0.315000
     14 C08         43.8640    32.4720     9.5390 ca         1 N5Q      -0.229000
     15 C09         44.8560    32.4940     8.5530 ca         1 N5Q       0.235100
     16 C20         39.1000    29.6990     6.4180 ca         1 N5Q      -0.078000
     17 C21         38.2310    29.2270     5.4190 ca         1 N5Q      -0.122000
     18 C24         37.3110    29.5020     8.0640 ca         1 N5Q      -0.032000
     19 C25         36.8580    29.6420     9.3860 ca         1 N5Q      -0.119000
     20 N11         43.2260    32.0600    11.8570 nu         1 N5Q      -0.918900
     21 N13         41.2950    31.2790    10.8270 nd         1 N5Q      -0.721000
     22 O01         46.9670    32.4930     6.6650 o          1 N5Q      -0.696000
     23 O03         48.4030    31.8170     8.1180 o          1 N5Q      -0.696000
     24 O10         44.5180    32.8810     7.2980 oh         1 N5Q      -0.633100
     25 S16         40.9990    31.7230    13.3830 ss         1 N5Q      -0.163400
     26 H151        38.7030    30.9500    12.9600 h4         1 N5Q       0.150000
     27 H181        40.5340    30.5630     8.4830 ha         1 N5Q       0.153000
     28 H221        36.2330    28.5290     4.9650 ha         1 N5Q       0.103000
     29 H231        35.4160    28.7710     7.3010 ha         1 N5Q       0.104000
     30 H261        37.3410    30.2090    11.3980 ha         1 N5Q       0.107000
     31 H051        47.5060    31.4610    10.4530 ha         1 N5Q       0.120000
     32 H061        45.7480    31.4290    12.1750 ha         1 N5Q       0.085000
     33 H081        42.8540    32.7730     9.2840 ha         1 N5Q       0.139000
     34 H201        40.1260    29.9550     6.1610 ha         1 N5Q       0.130000
     35 H211        38.5860    29.1210     4.3960 ha         1 N5Q       0.111000
     36 H251        35.8330    29.3860     9.6420 ha         1 N5Q       0.104000
     37 H111        43.6140    32.1070    12.7920 hn         1 N5Q       0.496000
     38 H101        45.3780    32.8160     6.7890 ho         1 N5Q       0.551000
     39 C02         47.2720    32.1470     7.7990 c          1 N5Q       0.726600
@<TRIPOS>BOND
     1     1    20 1   
     2     1    21 2   
     3     1    25 1   
     4     2     3 2   
     5     2     4 1   
     6     2    21 1   
     7     3    25 1   
     8     3    26 1   
     9     4     5 ar  
    10     4     9 ar  
    11     5     6 ar  
    12     5    27 1   
    13     6    16 ar  
    14     6    18 ar  
    15     7     8 ar  
    16     7    17 ar  
    17     7    28 1   
    18     8    18 ar  
    19     8    29 1   
    20     9    19 ar  
    21     9    30 1   
    22    10    11 ar  
    23    10    15 ar  
    24    10    39 1   
    25    11    12 ar  
    26    11    31 1   
    27    12    13 ar  
    28    12    32 1   
    29    13    14 ar  
    30    13    20 1   
    31    14    15 ar  
    32    14    33 1   
    33    15    24 1   
    34    16    17 ar  
    35    16    34 1   
    36    17    35 1   
    37    18    19 ar  
    38    19    36 1   
    39    20    37 1   
    40    22    39 1   
    41    23    39 1   
    42    24    38 1   
@<TRIPOS>SUBSTRUCTURE
     1 N5Q         1 TEMP              0 ****  ****    0 ROOT
