@<TRIPOS>MOLECULE
N5Q
   39    42     1     0     0
SMALL
bcc


@<TRIPOS>ATOM
      1 C12         41.9990    31.3810    11.8920 cc         1 N5Q       0.756300
      2 C14         39.9970    30.8080    11.1630 cd         1 N5Q       0.464800
      3 C15         39.6960    30.9000    12.4850 cc         1 N5Q      -0.231400
      4 C17         39.0720    30.4350    10.0880 ca         1 N5Q      -0.125500
      5 C18         39.5280    30.2840     8.8000 ca         1 N5Q      -0.066000
      6 C19         38.6600    29.9100     7.7510 ca         1 N5Q      -0.045000
      7 C22         36.9000    29.1580     5.7050 ca         1 N5Q      -0.126000
      8 C23         36.4220    29.3130     6.9790 ca         1 N5Q      -0.129000
      9 C26         37.6950    30.2160    10.3560 ca         1 N5Q      -0.108000
     10 C04         46.1440    32.2660     8.8700 ca         1 N5Q      -0.289600
     11 C05         46.4550    32.4230    10.2180 ca         1 N5Q      -0.025000
     12 C06         45.5190    32.2320    11.2110 ca         1 N5Q      -0.278000
     13 C07         44.2070    31.8660    10.8680 ca         1 N5Q       0.176600
     14 C08         43.8670    31.6940     9.5310 ca         1 N5Q      -0.247000
     15 C09         44.8290    31.8930     8.5350 ca         1 N5Q       0.235100
     16 C20         39.1250    29.7450     6.4250 ca         1 N5Q      -0.096000
     17 C21         38.2650    29.3760     5.4260 ca         1 N5Q      -0.140000
     18 C24         37.2870    29.6900     8.0300 ca         1 N5Q      -0.032000
     19 C25         36.8340    29.8560     9.3610 ca         1 N5Q      -0.137000
     20 N11         43.3150    31.7050    11.9250 nu         1 N5Q      -0.725300
     21 N13         41.3030    31.0840    10.8450 nd         1 N5Q      -0.721000
     22 O01         46.7500    32.3090     6.6000 o          1 N5Q      -0.801300
     23 O03         48.3150    32.8160     8.1010 o          1 N5Q      -0.801300
     24 O10         44.4800    31.7270     7.2650 oh         1 N5Q      -0.594100
     25 S16         41.0910    31.3520    13.3860 ss         1 N5Q      -0.308300
     26 H151        38.7580    30.7260    12.9870 h4         1 N5Q       0.168000
     27 H181        40.5750    30.4470     8.5740 ha         1 N5Q       0.171000
     28 H221        36.2310    28.8670     4.9060 ha         1 N5Q       0.121000
     29 H231        35.3730    29.1470     7.1950 ha         1 N5Q       0.122000
     30 H261        37.3120    30.3370    11.3610 ha         1 N5Q       0.125000
     31 H051        47.4620    32.7080    10.4930 ha         1 N5Q       0.138000
     32 H061        45.7910    32.3650    12.2520 ha         1 N5Q       0.103000
     33 H081        42.8670    31.4110     9.2450 ha         1 N5Q       0.157000
     34 H201        40.1740    29.9130     6.2130 ha         1 N5Q       0.148000
     35 H211        38.6310    29.2490     4.4150 ha         1 N5Q       0.129000
     36 H251        35.7870    29.6940     9.5830 ha         1 N5Q       0.122000
     37 H111        43.7080    31.8790    12.8380 hn         1 N5Q       0.440800
     38 H101        45.3550    31.9360     6.7550 ho         1 N5Q       0.512000
     39 C02         47.1670    32.4860     7.7920 c          1 N5Q       0.937200
@<TRIPOS>BOND
     1     1    20 1   
     2     1    21 2   
     3     1    25 1   
     4     2     3 2   
     5     2     4 1   
     6     2    21 1   
     7     3    25 1   
     8     3    26 1   
     9     4     5 ar  
    10     4     9 ar  
    11     5     6 ar  
    12     5    27 1   
    13     6    16 ar  
    14     6    18 ar  
    15     7     8 ar  
    16     7    17 ar  
    17     7    28 1   
    18     8    18 ar  
    19     8    29 1   
    20     9    19 ar  
    21     9    30 1   
    22    10    11 ar  
    23    10    15 ar  
    24    10    39 1   
    25    11    12 ar  
    26    11    31 1   
    27    12    13 ar  
    28    12    32 1   
    29    13    14 ar  
    30    13    20 1   
    31    14    15 ar  
    32    14    33 1   
    33    15    24 1   
    34    16    17 ar  
    35    16    34 1   
    36    17    35 1   
    37    18    19 ar  
    38    19    36 1   
    39    20    37 1   
    40    22    39 1   
    41    23    39 1   
    42    24    38 1   
@<TRIPOS>SUBSTRUCTURE
     1 N5Q         1 TEMP              0 ****  ****    0 ROOT
