@<TRIPOS>MOLECULE
N5R
   33    35     1     0     0
SMALL
No Charge or Current Charge


@<TRIPOS>ATOM
      1 C10          9.9130    -2.9530    26.4550 ca         1 N5R      -0.168000
      2 C13          7.4950    -1.5920    26.1580 ca         1 N5R      -0.043000
      3 C15          6.1750    -3.6500    25.8400 ca         1 N5R      -0.197500
      4 C20          5.0290    -2.8200    25.7130 ca         1 N5R      -0.054000
      5 C21          5.1030    -1.4310    25.8090 ca         1 N5R      -0.121000
      6 C22          6.3320    -0.8190    26.0290 ca         1 N5R      -0.103000
      7 C02         11.8110    -7.7370    24.7170 ca         1 N5R       0.057000
      8 C03         11.7970    -6.4040    24.2720 ca         1 N5R      -0.068000
      9 C04         10.8350    -5.5080    24.7730 ca         1 N5R      -0.167500
     10 C05         10.8620    -8.1750    25.6550 ca         1 N5R      -0.068000
     11 C06          9.9010    -7.2750    26.1530 ca         1 N5R      -0.167500
     12 C07          9.8910    -5.9370    25.7250 ca         1 N5R       0.374000
     13 C09          8.7380    -3.6970    26.2250 ca         1 N5R       0.329000
     14 C11          9.8990    -1.5610    26.5210 ca         1 N5R      -0.101000
     15 C12          8.6920    -0.8850    26.3710 ca         1 N5R      -0.136000
     16 C14          7.4650    -3.0230    26.0760 ca         1 N5R       0.027000
     17 N08          8.9160    -5.0830    26.2300 nu         1 N5R      -1.007000
     18 O17          6.5880    -5.7900    24.4020 o          1 N5R      -0.678533
     19 O18          4.3960    -5.5930    25.5550 o          1 N5R      -0.678533
     20 O19          6.4560    -6.0380    26.8720 o          1 N5R      -0.678533
     21 S16          5.8600    -5.4940    25.6430 s6         1 N5R       1.242100
     22 H1          10.8590    -3.4650    26.6070 ha         1 N5R       0.112000
     23 H2           4.0450    -3.2440    25.5280 ha         1 N5R       0.144000
     24 H3           4.2040    -0.8280    25.7070 ha         1 N5R       0.098000
     25 H4           6.3790     0.2660    26.0970 ha         1 N5R       0.093000
     26 H5          12.5250    -6.0690    23.5380 ha         1 N5R       0.110000
     27 H6          10.8190    -4.4860    24.4070 ha         1 N5R       0.125000
     28 H7          10.8690    -9.2080    25.9950 ha         1 N5R       0.110000
     29 H8           9.1680    -7.6180    26.8770 ha         1 N5R       0.125000
     30 H9          10.8200    -1.0090    26.6990 ha         1 N5R       0.097000
     31 H10          8.6860     0.2010    26.4280 ha         1 N5R       0.096000
     32 H11          8.0900    -5.5880    26.5740 hn         1 N5R       0.552000
     33 Cl01        13.0120    -8.8590    24.0920 cl         1 N5R      -0.254000
@<TRIPOS>BOND
     1     1    13 ar  
     2     1    14 ar  
     3     1    22 1   
     4     2     6 ar  
     5     2    15 ar  
     6     2    16 ar  
     7     3     4 ar  
     8     3    16 ar  
     9     3    21 1   
    10     4     5 ar  
    11     4    23 1   
    12     5     6 ar  
    13     5    24 1   
    14     6    25 1   
    15     7     8 ar  
    16     7    10 ar  
    17     7    33 1   
    18     8     9 ar  
    19     8    26 1   
    20     9    12 ar  
    21     9    27 1   
    22    10    11 ar  
    23    10    28 1   
    24    11    12 ar  
    25    11    29 1   
    26    12    17 1   
    27    13    16 ar  
    28    13    17 1   
    29    14    15 ar  
    30    14    30 1   
    31    15    31 1   
    32    17    32 1   
    33    18    21 1   
    34    19    21 1   
    35    20    21 1   
@<TRIPOS>SUBSTRUCTURE
     1 N5R         1 TEMP              0 ****  ****    0 ROOT
