@<TRIPOS>MOLECULE
N5R
   33    35     1     0     0
SMALL
abcg2


@<TRIPOS>ATOM
      1 C10          9.9430    -2.9210    26.6550 ca         1 N5R      -0.168000
      2 C13          7.5640    -1.6260    26.1050 ca         1 N5R      -0.043000
      3 C15          6.3080    -3.7040    25.8500 ca         1 N5R      -0.197500
      4 C20          5.1840    -2.9570    25.6060 ca         1 N5R      -0.054000
      5 C21          5.2020    -1.5530    25.6140 ca         1 N5R      -0.121000
      6 C22          6.3720    -0.9050    25.8510 ca         1 N5R      -0.103000
      7 C02         11.5420    -7.6270    24.5280 ca         1 N5R       0.057000
      8 C03         11.5630    -6.2740    24.2350 ca         1 N5R      -0.068000
      9 C04         10.7190    -5.4020    24.9050 ca         1 N5R      -0.167500
     10 C05         10.6750    -8.1130    25.4960 ca         1 N5R      -0.068000
     11 C06          9.8380    -7.2430    26.1670 ca         1 N5R      -0.167500
     12 C07          9.8350    -5.8680    25.8860 ca         1 N5R       0.374000
     13 C09          8.8190    -3.6910    26.4360 ca         1 N5R       0.329000
     14 C11          9.9250    -1.5260    26.5750 ca         1 N5R      -0.101000
     15 C12          8.7470    -0.8870    26.3160 ca         1 N5R      -0.136000
     16 C14          7.5640    -3.0580    26.1290 ca         1 N5R       0.027000
     17 N08          8.9500    -5.0700    26.5720 nu         1 N5R      -1.007000
     18 O17          6.8790    -5.9240    24.5820 o          1 N5R      -0.678533
     19 O18          4.6070    -5.6760    25.4790 o          1 N5R      -0.678533
     20 O19          6.4590    -6.0530    27.0250 o          1 N5R      -0.678533
     21 S16          6.0460    -5.4920    25.7110 s6         1 N5R       1.242100
     22 H1          10.8660    -3.4210    26.9200 ha         1 N5R       0.112000
     23 H2           4.2500    -3.4580    25.3930 ha         1 N5R       0.144000
     24 H3           4.2890    -1.0040    25.4200 ha         1 N5R       0.098000
     25 H4           6.4160     0.1770    25.8490 ha         1 N5R       0.093000
     26 H5          12.2300    -5.8870    23.4760 ha         1 N5R       0.110000
     27 H6          10.7470    -4.3550    24.6390 ha         1 N5R       0.125000
     28 H7          10.6480    -9.1700    25.7290 ha         1 N5R       0.110000
     29 H8           9.1620    -7.6370    26.9170 ha         1 N5R       0.125000
     30 H9          10.8340    -0.9660    26.7500 ha         1 N5R       0.097000
     31 H10          8.6990     0.1940    26.2740 ha         1 N5R       0.096000
     32 H11          8.1510    -5.5580    26.9750 hn         1 N5R       0.552000
     33 CL01        12.5980    -8.7160    23.6800 cl         1 N5R      -0.254000
@<TRIPOS>BOND
     1     1    13 ar  
     2     1    14 ar  
     3     1    22 1   
     4     2     6 ar  
     5     2    15 ar  
     6     2    16 ar  
     7     3     4 ar  
     8     3    16 ar  
     9     3    21 1   
    10     4     5 ar  
    11     4    23 1   
    12     5     6 ar  
    13     5    24 1   
    14     6    25 1   
    15     7     8 ar  
    16     7    10 ar  
    17     7    33 1   
    18     8     9 ar  
    19     8    26 1   
    20     9    12 ar  
    21     9    27 1   
    22    10    11 ar  
    23    10    28 1   
    24    11    12 ar  
    25    11    29 1   
    26    12    17 1   
    27    13    16 ar  
    28    13    17 1   
    29    14    15 ar  
    30    14    30 1   
    31    15    31 1   
    32    17    32 1   
    33    18    21 1   
    34    19    21 1   
    35    20    21 1   
@<TRIPOS>SUBSTRUCTURE
     1 N5R         1 TEMP              0 ****  ****    0 ROOT
