@<TRIPOS>MOLECULE
N5S
   40    41     1     0     0
SMALL
abcg2


@<TRIPOS>ATOM
      1 N1           3.5370     0.7180     0.6230 ns         1 N5S      -0.495400
      2 C4          -2.9780     0.7850    -0.3540 cc         1 N5S       0.050300
      3 C5          -2.0290    -0.3590    -0.5630 c3         1 N5S       0.117700
      4 C6          -0.7070    -0.1660     0.1990 c3         1 N5S      -0.136400
      5 C7           0.0030     1.1410    -0.1590 c3         1 N5S       0.122000
      6 C8           2.3790     0.5980    -0.1140 c          1 N5S       0.666100
      7 C10          5.1590    -0.5310    -0.8740 cc         1 N5S      -0.242000
      8 C13         -2.7110    -1.6600    -0.1050 c3         1 N5S       0.317000
      9 N            1.3160     1.2250     0.4330 ns         1 N5S      -0.520900
     10 C           -4.2530     3.0710     2.0830 c3         1 N5S      -0.125400
     11 O           -3.0820     1.3180     0.8840 os         1 N5S      -0.234000
     12 C1          -3.9710     2.3370     0.8290 cc         1 N5S       0.154300
     13 C11          6.4710    -0.7770    -0.6460 cd         1 N5S       0.191300
     14 C12          7.5010    -1.4950    -1.4310 c3         1 N5S      -0.137400
     15 C2          -4.4340     2.4610    -0.4400 cd         1 N5S      -0.191000
     16 C3          -3.7900     1.4460    -1.2120 cd         1 N5S      -0.132000
     17 C9           4.7580     0.1910     0.2830 cc         1 N5S       0.423900
     18 F           -3.8400    -1.8850    -0.7800 f          1 N5S      -0.103667
     19 F1          -1.9270    -2.7270    -0.2860 f          1 N5S      -0.103667
     20 F2          -3.0260    -1.6120     1.1930 f          1 N5S      -0.103667
     21 N2           5.7530     0.3540     1.1140 nd         1 N5S      -0.442300
     22 O1          -1.8290    -0.5610    -1.9340 oh         1 N5S      -0.629000
     23 O2           2.3300    -0.0090    -1.1720 o          1 N5S      -0.612100
     24 O3           6.8300    -0.2550     0.5270 os         1 N5S      -0.067700
     25 H1           3.5120     1.2290     1.4940 hn         1 N5S       0.332500
     26 H2          -0.8770    -0.1840     1.2770 hc         1 N5S       0.081200
     27 H3          -0.0480    -1.0030    -0.0390 hc         1 N5S       0.081200
     28 H4           0.1000     1.2600    -1.2390 h1         1 N5S       0.059700
     29 H5          -0.5640     1.9970     0.2030 h1         1 N5S       0.059700
     30 H6           4.5800    -0.8240    -1.7290 ha         1 N5S       0.177000
     31 H7           1.3870     1.6430     1.3470 hn         1 N5S       0.317500
     32 H8          -3.3480     3.5080     2.5090 hc         1 N5S       0.057700
     33 H9          -4.9540     3.8780     1.8820 hc         1 N5S       0.057700
     34 H10         -4.6950     2.4220     2.8410 hc         1 N5S       0.057700
     35 H11          8.3810    -0.8730    -1.5940 hc         1 N5S       0.063033
     36 H12          7.8240    -2.4010    -0.9170 hc         1 N5S       0.063033
     37 H13          7.0950    -1.7780    -2.3990 hc         1 N5S       0.063033
     38 H14         -5.1520     3.1870    -0.7850 ha         1 N5S       0.146000
     39 H15         -3.9230     1.2450    -2.2620 ha         1 N5S       0.152000
     40 H16         -1.4630     0.2380    -2.3290 ho         1 N5S       0.468000
@<TRIPOS>BOND
     1     1     6 1   
     2     1    17 1   
     3     1    25 1   
     4     2     3 1   
     5     2    11 1   
     6     2    16 2   
     7     3     4 1   
     8     3     8 1   
     9     3    22 1   
    10     4     5 1   
    11     4    26 1   
    12     4    27 1   
    13     5     9 1   
    14     5    28 1   
    15     5    29 1   
    16     6     9 1   
    17     6    23 2   
    18     7    13 2   
    19     7    17 1   
    20     7    30 1   
    21     8    18 1   
    22     8    19 1   
    23     8    20 1   
    24     9    31 1   
    25    10    12 1   
    26    10    32 1   
    27    10    33 1   
    28    10    34 1   
    29    11    12 1   
    30    12    15 2   
    31    13    14 1   
    32    13    24 1   
    33    14    35 1   
    34    14    36 1   
    35    14    37 1   
    36    15    16 1   
    37    15    38 1   
    38    16    39 1   
    39    17    21 2   
    40    21    24 1   
    41    22    40 1   
@<TRIPOS>SUBSTRUCTURE
     1 N5S         1 TEMP              0 ****  ****    0 ROOT
