@<TRIPOS>MOLECULE
N5S
   40    41     1     0     0
SMALL
No Charge or Current Charge


@<TRIPOS>ATOM
      1 N1           3.5120     0.7860     0.4000 ns         1 N5S      -0.495400
      2 C4          -3.0670     0.7810    -0.3030 cc         1 N5S       0.050300
      3 C5          -2.1940    -0.4020    -0.6950 c3         1 N5S       0.117700
      4 C6          -0.7420    -0.2380    -0.1440 c3         1 N5S      -0.136400
      5 C7          -0.0230     1.0680    -0.5550 c3         1 N5S       0.122000
      6 C8           2.4200     0.5210    -0.3750 c          1 N5S       0.666100
      7 C10          5.2860    -0.5670    -0.7000 cc         1 N5S      -0.242000
      8 C13         -2.8510    -1.7350    -0.1750 c3         1 N5S       0.317000
      9 N            1.3010     1.1790     0.0630 ns         1 N5S      -0.520900
     10 C           -4.0480     3.0640     2.3490 c3         1 N5S      -0.125400
     11 O           -3.0150     1.2670     0.9880 os         1 N5S      -0.234000
     12 C1          -3.8900     2.3260     1.0530 cc         1 N5S       0.154300
     13 C11          6.5960    -0.7250    -0.4010 cd         1 N5S       0.191300
     14 C12          7.6620    -1.5440    -1.0690 c3         1 N5S      -0.137400
     15 C2          -4.4840     2.5080    -0.1640 cd         1 N5S      -0.191000
     16 C3          -3.9620     1.5250    -1.0290 cd         1 N5S      -0.132000
     17 C9           4.7960     0.3170     0.2770 cc         1 N5S       0.423900
     18 F           -4.1040    -1.8880    -0.6680 f          1 N5S      -0.103667
     19 F1          -2.1330    -2.8230    -0.5460 f          1 N5S      -0.103667
     20 F2          -2.9430    -1.7510     1.1760 f          1 N5S      -0.103667
     21 N2           5.7150     0.7020     1.1430 nd         1 N5S      -0.442300
     22 O1          -2.0920    -0.4590    -2.1350 oh         1 N5S      -0.629000
     23 O2           2.4200    -0.2100    -1.3490 o          1 N5S      -0.612100
     24 O3           6.9080     0.0210     0.7050 os         1 N5S      -0.067700
     25 H1           3.3470     1.4140     1.1700 hn         1 N5S       0.332500
     26 H2          -0.7670    -0.2820     0.9520 hc         1 N5S       0.081200
     27 H3          -0.1340    -1.0900    -0.4710 hc         1 N5S       0.081200
     28 H4           0.0920     1.1100    -1.6470 h1         1 N5S       0.059700
     29 H5          -0.6180     1.9370    -0.2460 h1         1 N5S       0.059700
     30 H6           4.7380    -1.0220    -1.5130 ha         1 N5S       0.177000
     31 H7           1.3970     1.7710     0.8780 hn         1 N5S       0.317500
     32 H8          -3.0930     3.4970     2.6680 hc         1 N5S       0.057700
     33 H9          -4.7750     3.8780     2.2500 hc         1 N5S       0.057700
     34 H10         -4.3980     2.3890     3.1390 hc         1 N5S       0.057700
     35 H11          8.4820    -0.9060    -1.4190 hc         1 N5S       0.063033
     36 H12          8.0800    -2.2820    -0.3740 hc         1 N5S       0.063033
     37 H13          7.2610    -2.0830    -1.9340 hc         1 N5S       0.063033
     38 H14         -5.2190     3.2670    -0.4100 ha         1 N5S       0.146000
     39 H15         -4.2230     1.3790    -2.0730 ha         1 N5S       0.152000
     40 H16         -1.9220     0.4520    -2.4570 ho         1 N5S       0.468000
@<TRIPOS>BOND
     1     1     6 1   
     2     1    17 1   
     3     1    25 1   
     4     2     3 1   
     5     2    11 1   
     6     2    16 2   
     7     3     4 1   
     8     3     8 1   
     9     3    22 1   
    10     4     5 1   
    11     4    26 1   
    12     4    27 1   
    13     5     9 1   
    14     5    28 1   
    15     5    29 1   
    16     6     9 1   
    17     6    23 2   
    18     7    13 2   
    19     7    17 1   
    20     7    30 1   
    21     8    18 1   
    22     8    19 1   
    23     8    20 1   
    24     9    31 1   
    25    10    12 1   
    26    10    32 1   
    27    10    33 1   
    28    10    34 1   
    29    11    12 1   
    30    12    15 2   
    31    13    14 1   
    32    13    24 1   
    33    14    35 1   
    34    14    36 1   
    35    14    37 1   
    36    15    16 1   
    37    15    38 1   
    38    16    39 1   
    39    17    21 2   
    40    21    24 1   
    41    22    40 1   
@<TRIPOS>SUBSTRUCTURE
     1 N5S         1 TEMP              0 ****  ****    0 ROOT
