@<TRIPOS>MOLECULE
N5T
   42    44     1     0     0
SMALL
No Charge or Current Charge


@<TRIPOS>ATOM
      1 C1          -4.6780     0.5040    -0.8680 ca         1 N5T       0.159000
      2 C2          -3.2930     0.4170    -1.0810 ca         1 N5T      -0.123000
      3 C3          -2.4220     0.1090    -0.0140 ca         1 N5T      -0.042800
      4 C4          -2.9720    -0.1070     1.2720 ca         1 N5T       0.162000
      5 C5          -4.3600    -0.0190     1.4820 ca         1 N5T      -0.125000
      6 C6          -5.2160     0.2860     0.4100 ca         1 N5T      -0.122000
      7 C10         -0.9530     0.0190    -0.2710 ce         1 N5T      -0.094400
      8 C11         -0.1000    -1.1060     0.2640 c5         1 N5T       0.149200
      9 N12          1.1970    -0.8310    -0.4030 n          1 N5T      -0.429800
     10 C13          1.1420     0.4470    -1.1690 c5         1 N5T       0.191200
     11 C14         -0.3060     0.8900    -1.0570 c2         1 N5T      -0.195200
     12 C17          2.0510     1.4440    -0.4450 ca         1 N5T      -0.090300
     13 C19          3.1820     1.9650    -1.1060 ca         1 N5T      -0.087000
     14 C20          4.0320     2.8800    -0.4600 ca         1 N5T      -0.116000
     15 C21          3.7610     3.2840     0.8570 ca         1 N5T      -0.104000
     16 C22          2.6390     2.7710     1.5270 ca         1 N5T      -0.116000
     17 C23          1.7890     1.8570     0.8800 ca         1 N5T      -0.087000
     18 C29          2.1750    -1.8100    -0.6840 c          1 N5T       0.658100
     19 N30          2.2770    -2.9910     0.0960 n          1 N5T      -0.421800
     20 C31          3.1880    -4.0740    -0.3390 c3         1 N5T       0.091800
     21 C35          1.7500    -3.1000     1.4750 c3         1 N5T       0.091800
     22 O39          2.9480    -1.6380    -1.6180 o          1 N5T      -0.628100
     23 F40         -2.1750    -0.3810     2.3290 f          1 N5T      -0.177000
     24 F41         -5.4990     0.7950    -1.9000 f          1 N5T      -0.173000
     25 H2          -2.9010     0.5800    -2.0810 ha         1 N5T       0.138000
     26 H5          -4.7670    -0.1840     2.4770 ha         1 N5T       0.138000
     27 H6          -6.2900     0.3560     0.5660 ha         1 N5T       0.139000
     28 H111        -0.5050    -2.0880    -0.0140 h1         1 N5T       0.062200
     29 H112        -0.0030    -1.0510     1.3550 h1         1 N5T       0.062200
     30 H13          1.4370     0.3120    -2.2190 h1         1 N5T       0.086700
     31 H14         -0.7470     1.7550    -1.5520 ha         1 N5T       0.203000
     32 H19          3.4060     1.6570    -2.1250 ha         1 N5T       0.115500
     33 H20          4.9020     3.2740    -0.9810 ha         1 N5T       0.112000
     34 H21          4.4190     3.9910     1.3570 ha         1 N5T       0.111000
     35 H22          2.4270     3.0810     2.5480 ha         1 N5T       0.112000
     36 H23          0.9250     1.4670     1.4140 ha         1 N5T       0.115500
     37 H311         3.0560    -4.2670    -1.4120 h1         1 N5T       0.039033
     38 H312         4.2290    -3.7800    -0.1510 h1         1 N5T       0.039033
     39 H313         2.9720    -5.0000     0.2080 h1         1 N5T       0.039033
     40 H351         1.8290    -2.1320     1.9870 h1         1 N5T       0.039033
     41 H352         0.7040    -3.4300     1.4540 h1         1 N5T       0.039033
     42 H353         2.3340    -3.8320     2.0480 h1         1 N5T       0.039033
@<TRIPOS>BOND
     1     1     2 ar  
     2     1     6 ar  
     3     1    24 1   
     4     2     3 ar  
     5     2    25 1   
     6     3     4 ar  
     7     3     7 1   
     8     4     5 ar  
     9     4    23 1   
    10     5     6 ar  
    11     5    26 1   
    12     6    27 1   
    13     7     8 1   
    14     7    11 2   
    15     8     9 1   
    16     8    28 1   
    17     8    29 1   
    18     9    10 1   
    19     9    18 1   
    20    10    11 1   
    21    10    12 1   
    22    10    30 1   
    23    11    31 1   
    24    12    13 ar  
    25    12    17 ar  
    26    13    14 ar  
    27    13    32 1   
    28    14    15 ar  
    29    14    33 1   
    30    15    16 ar  
    31    15    34 1   
    32    16    17 ar  
    33    16    35 1   
    34    17    36 1   
    35    18    19 1   
    36    18    22 2   
    37    19    20 1   
    38    19    21 1   
    39    20    37 1   
    40    20    38 1   
    41    20    39 1   
    42    21    40 1   
    43    21    41 1   
    44    21    42 1   
@<TRIPOS>SUBSTRUCTURE
     1 N5T         1 TEMP              0 ****  ****    0 ROOT
