@<TRIPOS>MOLECULE
N5T
   42    44     1     0     0
SMALL
abcg2


@<TRIPOS>ATOM
      1 C1          -4.6170     0.7150    -0.8670 ca         1 N5T       0.159000
      2 C2          -3.2540     0.6110    -1.0380 ca         1 N5T      -0.123000
      3 C3          -2.4590     0.0380    -0.0420 ca         1 N5T      -0.042800
      4 C4          -3.1150    -0.4190     1.0970 ca         1 N5T       0.162000
      5 C5          -4.4820    -0.3210     1.2650 ca         1 N5T      -0.125000
      6 C6          -5.2550     0.2550     0.2700 ca         1 N5T      -0.122000
      7 C10         -1.0070    -0.0490    -0.2320 ce         1 N5T      -0.094400
      8 C11         -0.1540    -1.1930     0.2470 c5         1 N5T       0.149200
      9 N12          1.1570    -0.8650    -0.3020 n          1 N5T      -0.429800
     10 C13          1.1610     0.4070    -1.0140 c5         1 N5T       0.191200
     11 C14         -0.2690     0.8300    -0.9060 c2         1 N5T      -0.195200
     12 C17          2.1190     1.4100    -0.4090 ca         1 N5T      -0.090300
     13 C19          3.0500     2.0680    -1.2020 ca         1 N5T      -0.087000
     14 C20          3.9180     3.0020    -0.6490 ca         1 N5T      -0.116000
     15 C21          3.8630     3.2830     0.7080 ca         1 N5T      -0.104000
     16 C22          2.9350     2.6260     1.5090 ca         1 N5T      -0.116000
     17 C23          2.0690     1.6970     0.9530 ca         1 N5T      -0.087000
     18 C29          2.1230    -1.7870    -0.6030 c          1 N5T       0.658100
     19 N30          2.1560    -2.9020     0.1830 n          1 N5T      -0.421800
     20 C31          2.9740    -4.0120    -0.2590 c3         1 N5T       0.091800
     21 C35          1.8850    -2.8590     1.6090 c3         1 N5T       0.091800
     22 O39          2.8970    -1.6190    -1.5390 o          1 N5T      -0.628100
     23 F40         -2.3990    -0.9660     2.0930 f          1 N5T      -0.177000
     24 F41         -5.3500     1.2680    -1.8460 f          1 N5T      -0.173000
     25 H2          -2.8000     0.9590    -1.9570 ha         1 N5T       0.138000
     26 H5          -4.9400    -0.6910     2.1720 ha         1 N5T       0.138000
     27 H6          -6.3270     0.3370     0.3790 ha         1 N5T       0.139000
     28 H111        -0.5180    -2.1560    -0.1260 h1         1 N5T       0.062200
     29 H112        -0.1420    -1.2530     1.3360 h1         1 N5T       0.062200
     30 H13          1.4290     0.2670    -2.0670 h1         1 N5T       0.086700
     31 H14         -0.6170     1.7560    -1.3420 ha         1 N5T       0.203000
     32 H19          3.1020     1.8450    -2.2620 ha         1 N5T       0.115500
     33 H20          4.6400     3.5050    -1.2800 ha         1 N5T       0.112000
     34 H21          4.5380     4.0080     1.1430 ha         1 N5T       0.111000
     35 H22          2.8860     2.8400     2.5690 ha         1 N5T       0.112000
     36 H23          1.3490     1.1910     1.5870 ha         1 N5T       0.115500
     37 H311         2.8950    -4.1500    -1.3340 h1         1 N5T       0.039033
     38 H312         4.0300    -3.8860    -0.0020 h1         1 N5T       0.039033
     39 H313         2.6160    -4.9220     0.2220 h1         1 N5T       0.039033
     40 H351         1.8390    -1.8330     1.9690 h1         1 N5T       0.039033
     41 H352         0.9580    -3.3680     1.8770 h1         1 N5T       0.039033
     42 H353         2.7020    -3.3450     2.1430 h1         1 N5T       0.039033
@<TRIPOS>BOND
     1     1     2 ar  
     2     1     6 ar  
     3     1    24 1   
     4     2     3 ar  
     5     2    25 1   
     6     3     4 ar  
     7     3     7 1   
     8     4     5 ar  
     9     4    23 1   
    10     5     6 ar  
    11     5    26 1   
    12     6    27 1   
    13     7     8 1   
    14     7    11 2   
    15     8     9 1   
    16     8    28 1   
    17     8    29 1   
    18     9    10 1   
    19     9    18 1   
    20    10    11 1   
    21    10    12 1   
    22    10    30 1   
    23    11    31 1   
    24    12    13 ar  
    25    12    17 ar  
    26    13    14 ar  
    27    13    32 1   
    28    14    15 ar  
    29    14    33 1   
    30    15    16 ar  
    31    15    34 1   
    32    16    17 ar  
    33    16    35 1   
    34    17    36 1   
    35    18    19 1   
    36    18    22 2   
    37    19    20 1   
    38    19    21 1   
    39    20    37 1   
    40    20    38 1   
    41    20    39 1   
    42    21    40 1   
    43    21    41 1   
    44    21    42 1   
@<TRIPOS>SUBSTRUCTURE
     1 N5T         1 TEMP              0 ****  ****    0 ROOT
