@<TRIPOS>MOLECULE
N5U
   35    36     1     0     0
SMALL
No Charge or Current Charge


@<TRIPOS>ATOM
      1 C1           9.3170     5.8460    44.3500 c3         1 N5U       0.056900
      2 C3          11.8110     6.2950    44.2690 cc         1 N5U       0.388400
      3 N4          12.6460     7.3220    44.3080 nd         1 N5U      -0.672000
      4 C5          11.8500     8.4460    44.3900 cd         1 N5U       0.234900
      5 C6          10.5180     8.1030    44.3890 cc         1 N5U      -0.213300
      6 C7           9.3160     9.0350    44.4870 c6         1 N5U       0.180000
      7 C10         10.1130    10.9560    42.9450 c6         1 N5U      -0.074400
      8 C11          9.0550    10.5090    41.9100 c6         1 N5U      -0.097400
      9 C12          8.7450     9.0030    42.0610 c6         1 N5U       0.097000
     10 C16          5.9650     8.0150    42.6760 c3         1 N5U      -0.152400
     11 C17          4.5690     7.5380    43.1390 c3         1 N5U      -0.077100
     12 O15          6.6120     8.3510    44.9710 o          1 N5U      -0.608100
     13 N13          8.2970     8.7000    43.4510 n          1 N5U      -0.414800
     14 C9           9.6890    10.5440    44.3820 c6         1 N5U      -0.085400
     15 N2          10.5000     6.7210    44.3330 na         1 N5U      -0.155500
     16 H18          9.6190     4.8100    44.5470 h1         1 N5U       0.055367
     17 H19          8.6270     6.1730    45.1370 h1         1 N5U       0.055367
     18 H20          8.8100     5.8950    43.3780 h1         1 N5U       0.055367
     19 H21         12.0800     5.2470    44.2090 h5         1 N5U       0.052100
     20 H22         12.2880     9.4350    44.4460 h4         1 N5U       0.035100
     21 H8           8.8830     8.8920    45.4880 h1         1 N5U       0.095700
     22 H25         11.0830    10.5110    42.6900 hc         1 N5U       0.047200
     23 H26         10.2500    12.0450    42.8940 hc         1 N5U       0.047200
     24 H27          9.4120    10.7180    40.8920 hc         1 N5U       0.046700
     25 H28          8.1310    11.0890    42.0450 hc         1 N5U       0.046700
     26 H29          8.0020     8.7100    41.3110 h1         1 N5U       0.053700
     27 H30          9.6530     8.4220    41.8430 h1         1 N5U       0.053700
     28 H31          6.4400     7.2750    42.0220 hc         1 N5U       0.056200
     29 H34          5.8820     8.8790    42.0080 hc         1 N5U       0.056200
     30 H33          3.9390     7.3030    42.2730 hc         1 N5U       0.042367
     31 H1           4.6530     6.6350    43.7570 hc         1 N5U       0.042367
     32 H32          4.0670     8.3160    43.7260 hc         1 N5U       0.042367
     33 H23         10.4760    10.8000    45.1040 hc         1 N5U       0.054700
     34 H24          8.8130    11.1390    44.6740 hc         1 N5U       0.054700
     35 C14          6.9620     8.3770    43.7970 c          1 N5U       0.599100
@<TRIPOS>BOND
     1     1    15 1   
     2     1    16 1   
     3     1    17 1   
     4     1    18 1   
     5     2     3 2   
     6     2    15 1   
     7     2    19 1   
     8     3     4 1   
     9     4     5 2   
    10     4    20 1   
    11     5     6 1   
    12     5    15 1   
    13     6    13 1   
    14     6    14 1   
    15     6    21 1   
    16     7     8 1   
    17     7    14 1   
    18     7    22 1   
    19     7    23 1   
    20     8     9 1   
    21     8    24 1   
    22     8    25 1   
    23     9    13 1   
    24     9    26 1   
    25     9    27 1   
    26    10    11 1   
    27    10    28 1   
    28    10    29 1   
    29    10    35 1   
    30    11    30 1   
    31    11    31 1   
    32    11    32 1   
    33    12    35 2   
    34    13    35 1   
    35    14    33 1   
    36    14    34 1   
@<TRIPOS>SUBSTRUCTURE
     1 N5U         1 TEMP              0 ****  ****    0 ROOT
