@<TRIPOS>MOLECULE
N5U
   35    36     1     0     0
SMALL
abcg2


@<TRIPOS>ATOM
      1 C1           9.3330     5.8970    44.3500 c3         1 N5U       0.056900
      2 C3          11.7730     6.3340    44.3080 cc         1 N5U       0.388400
      3 N4          12.6250     7.3240    44.3110 nd         1 N5U      -0.672000
      4 C5          11.8560     8.4510    44.3400 cd         1 N5U       0.234900
      5 C6          10.5230     8.1340    44.3540 cc         1 N5U      -0.213300
      6 C7           9.2960     8.9880    44.4560 c6         1 N5U       0.180000
      7 C10         10.0190    10.9240    42.9640 c6         1 N5U      -0.074400
      8 C11          9.0070    10.4500    41.9270 c6         1 N5U      -0.097400
      9 C12          8.7500     8.9560    42.0720 c6         1 N5U       0.097000
     10 C16          6.0560     8.0750    42.6520 c3         1 N5U      -0.152400
     11 C17          4.6840     7.6590    43.1520 c3         1 N5U      -0.077100
     12 O15          6.6980     8.2430    44.9450 o          1 N5U      -0.608100
     13 N13          8.3190     8.6430    43.4250 n          1 N5U      -0.414800
     14 C9           9.6150    10.4850    44.3700 c6         1 N5U      -0.085400
     15 N2          10.4920     6.7610    44.3380 na         1 N5U      -0.155500
     16 H18          9.6600     4.8810    44.5580 h1         1 N5U       0.055367
     17 H19          8.6360     6.1980    45.1280 h1         1 N5U       0.055367
     18 H20          8.8200     5.9080    43.3900 h1         1 N5U       0.055367
     19 H21         12.0190     5.2820    44.2860 h5         1 N5U       0.052100
     20 H22         12.2970     9.4360    44.3560 h4         1 N5U       0.035100
     21 H8           8.8230     8.7930    45.4200 h1         1 N5U       0.095700
     22 H25         11.0040    10.5240    42.7120 hc         1 N5U       0.047200
     23 H26         10.1100    12.0110    42.9350 hc         1 N5U       0.047200
     24 H27          9.3680    10.6590    40.9180 hc         1 N5U       0.046700
     25 H28          8.0620    10.9900    42.0460 hc         1 N5U       0.046700
     26 H29          8.0130     8.6170    41.3500 h1         1 N5U       0.053700
     27 H30          9.6690     8.4010    41.8600 h1         1 N5U       0.053700
     28 H31          6.4590     7.3020    41.9920 hc         1 N5U       0.056200
     29 H34          5.9660     8.9730    42.0330 hc         1 N5U       0.056200
     30 H33          4.0220     7.4840    42.3050 hc         1 N5U       0.042367
     31 H1           4.7260     6.7380    43.7330 hc         1 N5U       0.042367
     32 H32          4.2280     8.4280    43.7750 hc         1 N5U       0.042367
     33 H23         10.3880    10.7420    45.0970 hc         1 N5U       0.054700
     34 H24          8.7130    11.0250    44.6720 hc         1 N5U       0.054700
     35 C14          7.0440     8.3360    43.7740 c          1 N5U       0.599100
@<TRIPOS>BOND
     1     1    15 1   
     2     1    16 1   
     3     1    17 1   
     4     1    18 1   
     5     2     3 2   
     6     2    15 1   
     7     2    19 1   
     8     3     4 1   
     9     4     5 2   
    10     4    20 1   
    11     5     6 1   
    12     5    15 1   
    13     6    13 1   
    14     6    14 1   
    15     6    21 1   
    16     7     8 1   
    17     7    14 1   
    18     7    22 1   
    19     7    23 1   
    20     8     9 1   
    21     8    24 1   
    22     8    25 1   
    23     9    13 1   
    24     9    26 1   
    25     9    27 1   
    26    10    11 1   
    27    10    28 1   
    28    10    29 1   
    29    10    35 1   
    30    11    30 1   
    31    11    31 1   
    32    11    32 1   
    33    12    35 2   
    34    13    35 1   
    35    14    33 1   
    36    14    34 1   
@<TRIPOS>SUBSTRUCTURE
     1 N5U         1 TEMP              0 ****  ****    0 ROOT
