@<TRIPOS>MOLECULE
N5V
   20    20     1     0     0
SMALL
abcg2


@<TRIPOS>ATOM
      1 N1          -0.1430     0.8250    -0.0510 ns         1 N5V      -0.491400
      2 C4           3.3470     0.9150    -0.0410 cc         1 N5V       0.303900
      3 C5           3.4050    -0.4350    -0.0110 cd         1 N5V      -0.317000
      4 N           -2.3910     0.3710    -0.0460 ns         1 N5V      -0.515900
      5 C           -4.8220     0.3500     0.0210 c3         1 N5V      -0.115100
      6 O           -0.8770    -1.3170    -0.0040 o          1 N5V      -0.623100
      7 C1          -3.5600    -0.4880    -0.0460 c3         1 N5V       0.121000
      8 C2          -1.1450    -0.1230    -0.0330 c          1 N5V       0.659100
      9 C3           1.1920     0.5280    -0.0400 cd         1 N5V       0.556300
     10 N2           2.0920     1.4600    -0.0570 nc         1 N5V      -0.722000
     11 S            1.8080    -1.0930    -0.0020 ss         1 N5V       0.053600
     12 H1          -0.3640     1.8110    -0.0650 hn         1 N5V       0.334500
     13 H2           4.2050     1.5710    -0.0520 h4         1 N5V       0.037100
     14 H3           4.2750    -1.0720     0.0080 h4         1 N5V       0.158000
     15 H4          -2.5340     1.3670    -0.1060 hn         1 N5V       0.317500
     16 H5          -4.9000     1.0210    -0.8350 hc         1 N5V       0.045033
     17 H6          -5.6980    -0.2970     0.0180 hc         1 N5V       0.045033
     18 H7          -4.8520     0.9500     0.9320 hc         1 N5V       0.045033
     19 H8          -3.5720    -1.1090    -0.9460 h1         1 N5V       0.054700
     20 H9          -3.5190    -1.1660     0.8090 h1         1 N5V       0.054700
@<TRIPOS>BOND
     1     1     8 1   
     2     1     9 1   
     3     1    12 1   
     4     2     3 2   
     5     2    10 1   
     6     2    13 1   
     7     3    11 1   
     8     3    14 1   
     9     4     7 1   
    10     4     8 1   
    11     4    15 1   
    12     5     7 1   
    13     5    16 1   
    14     5    17 1   
    15     5    18 1   
    16     6     8 2   
    17     7    19 1   
    18     7    20 1   
    19     9    10 2   
    20     9    11 1   
@<TRIPOS>SUBSTRUCTURE
     1 N5V         1 TEMP              0 ****  ****    0 ROOT
