@<TRIPOS>MOLECULE
N5V
   20    20     1     0     0
SMALL
No Charge or Current Charge


@<TRIPOS>ATOM
      1 N1          -0.1320     0.6090    -0.0290 ns         1 N5V      -0.491400
      2 C4           3.3370     1.0230    -0.0380 cc         1 N5V       0.303900
      3 C5           3.5380    -0.3330    -0.0420 cd         1 N5V      -0.317000
      4 N           -2.3780     0.2800    -0.0230 ns         1 N5V      -0.515900
      5 C           -4.8500     0.4710    -0.0130 c3         1 N5V      -0.115100
      6 O           -0.9850    -1.5130    -0.0330 o          1 N5V      -0.623100
      7 C1          -3.6340    -0.4680    -0.0220 c3         1 N5V       0.121000
      8 C2          -1.1410    -0.3050    -0.0290 c          1 N5V       0.659100
      9 C3           1.2160     0.3940    -0.0330 cd         1 N5V       0.556300
     10 N2           2.0280     1.4370    -0.0330 nc         1 N5V      -0.722000
     11 S            2.0080    -1.1900    -0.0400 ss         1 N5V       0.053600
     12 H1          -0.4250     1.5720    -0.0250 hn         1 N5V       0.334500
     13 H2           4.1120     1.7790    -0.0380 h4         1 N5V       0.037100
     14 H3           4.4780    -0.8680    -0.0460 h4         1 N5V       0.158000
     15 H4          -2.4210     1.2910    -0.0200 hn         1 N5V       0.317500
     16 H5          -4.8490     1.1150    -0.9010 hc         1 N5V       0.045033
     17 H6          -5.7790    -0.1110    -0.0120 hc         1 N5V       0.045033
     18 H7          -4.8420     1.1070     0.8800 hc         1 N5V       0.045033
     19 H8          -3.6710    -1.1070    -0.9150 h1         1 N5V       0.054700
     20 H9          -3.6640    -1.1140     0.8660 h1         1 N5V       0.054700
@<TRIPOS>BOND
     1     1     8 1   
     2     1     9 1   
     3     1    12 1   
     4     2     3 2   
     5     2    10 1   
     6     2    13 1   
     7     3    11 1   
     8     3    14 1   
     9     4     7 1   
    10     4     8 1   
    11     4    15 1   
    12     5     7 1   
    13     5    16 1   
    14     5    17 1   
    15     5    18 1   
    16     6     8 2   
    17     7    19 1   
    18     7    20 1   
    19     9    10 2   
    20     9    11 1   
@<TRIPOS>SUBSTRUCTURE
     1 N5V         1 TEMP              0 ****  ****    0 ROOT
