@<TRIPOS>MOLECULE
N5W
   35    37     1     0     0
SMALL
No Charge or Current Charge


@<TRIPOS>ATOM
      1 C10        -10.9330    17.0040     4.7150 ca         1 N5W      -0.095000
      2 C13         -7.6400    18.6170     3.5510 c3         1 N5W       0.121900
      3 C15         -6.2010    18.0200     5.5680 cc         1 N5W      -0.227000
      4 C20        -11.4200    18.5260     2.8920 ca         1 N5W      -0.095000
      5 C21        -14.3460    18.2210     3.7120 ca         1 N5W      -0.107000
      6 C22        -15.7110    17.9000     3.8060 ca         1 N5W      -0.060000
      7 C05        -16.1180    16.5910     4.1370 ca         1 N5W      -0.195300
      8 C06        -15.1290    15.6160     4.3880 ca         1 N5W      -0.060000
      9 C07        -13.7660    15.9420     4.2950 ca         1 N5W      -0.107000
     10 C08        -13.3430    17.2500     3.9530 cp         1 N5W      -0.006000
     11 C09        -11.8890    17.5960     3.8530 cp         1 N5W      -0.033000
     12 C11         -9.5690    17.3280     4.6230 ca         1 N5W      -0.090500
     13 C12         -9.1200    18.2580     3.6650 ca         1 N5W      -0.111300
     14 C16         -5.8330    18.7110     6.6940 cd         1 N5W       0.227900
     15 C18         -7.0750    20.0630     5.5600 cc         1 N5W       0.384400
     16 C19        -10.0560    18.8510     2.7970 ca         1 N5W      -0.090500
     17 F01        -17.8560    14.9470     3.9390 f          1 N5W      -0.113333
     18 F03        -18.0640    16.4390     5.5070 f          1 N5W      -0.113333
     19 F04        -18.3760    16.9890     3.4270 f          1 N5W      -0.113333
     20 N14         -6.9930    18.8870     4.8450 na         1 N5W      -0.169500
     21 N17         -6.3780    19.9790     6.6850 nd         1 N5W      -0.670000
     22 H101       -11.2510    16.2940     5.4740 ha         1 N5W       0.120500
     23 H132        -7.1100    17.7900     3.0620 h1         1 N5W       0.065700
     24 H131        -7.5200    19.5030     2.9150 h1         1 N5W       0.065700
     25 H151        -5.9630    17.0140     5.2450 h4         1 N5W       0.157000
     26 H201       -12.1190    18.9910     2.2010 ha         1 N5W       0.120500
     27 H211       -14.0650    19.2420     3.4660 ha         1 N5W       0.123000
     28 H221       -16.4500    18.6780     3.6230 ha         1 N5W       0.131500
     29 H061       -15.4120    14.6000     4.6570 ha         1 N5W       0.131500
     30 H071       -13.0280    15.1650     4.4790 ha         1 N5W       0.123000
     31 H111        -8.8620    16.8530     5.3000 ha         1 N5W       0.118500
     32 H161        -5.2080    18.3650     7.5090 h4         1 N5W       0.037100
     33 H181        -7.6450    20.9170     5.2140 h5         1 N5W       0.051100
     34 H191        -9.7290    19.5650     2.0440 ha         1 N5W       0.118500
     35 C02        -17.6060    16.2400     4.2500 c3         1 N5W       0.357300
@<TRIPOS>BOND
     1     1    11 ar  
     2     1    12 ar  
     3     1    22 1   
     4     2    13 1   
     5     2    20 1   
     6     2    23 1   
     7     2    24 1   
     8     3    14 2   
     9     3    20 1   
    10     3    25 1   
    11     4    11 ar  
    12     4    16 ar  
    13     4    26 1   
    14     5     6 ar  
    15     5    10 ar  
    16     5    27 1   
    17     6     7 ar  
    18     6    28 1   
    19     7     8 ar  
    20     7    35 1   
    21     8     9 ar  
    22     8    29 1   
    23     9    10 ar  
    24     9    30 1   
    25    10    11 1   
    26    12    13 ar  
    27    12    31 1   
    28    13    16 ar  
    29    14    21 1   
    30    14    32 1   
    31    15    20 1   
    32    15    21 2   
    33    15    33 1   
    34    16    34 1   
    35    17    35 1   
    36    18    35 1   
    37    19    35 1   
@<TRIPOS>SUBSTRUCTURE
     1 N5W         1 TEMP              0 ****  ****    0 ROOT
