@<TRIPOS>MOLECULE
N5W
   35    37     1     0     0
SMALL
abcg2


@<TRIPOS>ATOM
      1 C10        -10.8940    16.3370     4.1560 ca         1 N5W      -0.095000
      2 C13         -7.5530    18.0590     3.6370 c3         1 N5W       0.121900
      3 C15         -7.0690    18.6700     6.0250 cc         1 N5W      -0.227000
      4 C20        -11.3000    18.6390     3.6300 ca         1 N5W      -0.095000
      5 C21        -14.1030    18.0890     4.6090 ca         1 N5W      -0.107000
      6 C22        -15.4670    17.8640     4.7020 ca         1 N5W      -0.060000
      7 C05        -16.0070    16.6740     4.2320 ca         1 N5W      -0.195300
      8 C06        -15.1740    15.7160     3.6650 ca         1 N5W      -0.060000
      9 C07        -13.8130    15.9470     3.5770 ca         1 N5W      -0.107000
     10 C08        -13.2540    17.1370     4.0460 cp         1 N5W      -0.006000
     11 C09        -11.8010    17.3740     3.9460 cp         1 N5W      -0.033000
     12 C11         -9.5290    16.5580     4.0550 ca         1 N5W      -0.090500
     13 C12         -9.0350    17.8160     3.7350 ca         1 N5W      -0.111300
     14 C16         -6.5840    19.7990     6.6200 cd         1 N5W       0.227900
     15 C18         -6.6150    20.1990     4.5330 cc         1 N5W       0.384400
     16 C19         -9.9370    18.8550     3.5240 ca         1 N5W      -0.090500
     17 F01        -17.7860    15.1490     4.4510 f          1 N5W      -0.113333
     18 F03        -18.0950    17.1280     5.2320 f          1 N5W      -0.113333
     19 F04        -18.0580    16.8040     3.1050 f          1 N5W      -0.113333
     20 N14         -7.0790    18.9400     4.6850 na         1 N5W      -0.169500
     21 N17         -6.3020    20.7480     5.6790 nd         1 N5W      -0.670000
     22 H101       -11.2500    15.3500     4.4240 ha         1 N5W       0.120500
     23 H132        -7.0070    17.1160     3.6910 h1         1 N5W       0.065700
     24 H131        -7.2990    18.5230     2.6830 h1         1 N5W       0.065700
     25 H151        -7.3960    17.7250     6.4250 h4         1 N5W       0.157000
     26 H201       -11.9810    19.4600     3.4410 ha         1 N5W       0.120500
     27 H211       -13.6990    19.0140     4.9980 ha         1 N5W       0.123000
     28 H221       -16.0930    18.6230     5.1510 ha         1 N5W       0.131500
     29 H061       -15.5720    14.7860     3.2820 ha         1 N5W       0.131500
     30 H071       -13.1850    15.1970     3.1160 ha         1 N5W       0.123000
     31 H111        -8.8420    15.7390     4.2330 ha         1 N5W       0.118500
     32 H161        -6.4230    19.9730     7.6730 h4         1 N5W       0.037100
     33 H181        -6.5240    20.6600     3.5600 h5         1 N5W       0.051100
     34 H191        -9.5740    19.8430     3.2680 ha         1 N5W       0.118500
     35 C02        -17.4840    16.4400     4.2630 c3         1 N5W       0.357300
@<TRIPOS>BOND
     1     1    11 ar  
     2     1    12 ar  
     3     1    22 1   
     4     2    13 1   
     5     2    20 1   
     6     2    23 1   
     7     2    24 1   
     8     3    14 2   
     9     3    20 1   
    10     3    25 1   
    11     4    11 ar  
    12     4    16 ar  
    13     4    26 1   
    14     5     6 ar  
    15     5    10 ar  
    16     5    27 1   
    17     6     7 ar  
    18     6    28 1   
    19     7     8 ar  
    20     7    35 1   
    21     8     9 ar  
    22     8    29 1   
    23     9    10 ar  
    24     9    30 1   
    25    10    11 1   
    26    12    13 ar  
    27    12    31 1   
    28    13    16 ar  
    29    14    21 1   
    30    14    32 1   
    31    15    20 1   
    32    15    21 2   
    33    15    33 1   
    34    16    34 1   
    35    17    35 1   
    36    18    35 1   
    37    19    35 1   
@<TRIPOS>SUBSTRUCTURE
     1 N5W         1 TEMP              0 ****  ****    0 ROOT
