@<TRIPOS>MOLECULE
N5X
   58    61     1     0     0
SMALL
No Charge or Current Charge


@<TRIPOS>ATOM
      1 Cl1         11.6160    15.6320   -29.0600 cl         1 N5X      -0.226000
      2 C21         13.1260    14.8110   -29.4300 ca         1 N5X       0.132000
      3 C20         13.1280    13.6920   -30.2750 ca         1 N5X      -0.117500
      4 C19         14.3350    13.0340   -30.5710 ca         1 N5X      -0.067000
      5 C22         14.3290    15.2740   -28.8770 ca         1 N5X      -0.117500
      6 C23         15.5400    14.6210   -29.1700 ca         1 N5X      -0.067000
      7 C18         15.5600    13.4900   -30.0270 ca         1 N5X      -0.134600
      8 C17         16.8470    12.7610   -30.3710 c          1 N5X       0.601700
      9 O2          16.8400    11.7320   -31.0400 o          1 N5X      -0.577100
     10 N2          18.0070    13.3430   -29.8830 ns         1 N5X      -0.133000
     11 C11         19.3830    12.9860   -29.9460 ca         1 N5X      -0.057000
     12 C12         19.8450    11.7430   -30.4360 ca         1 N5X      -0.088000
     13 C13         21.2260    11.4350   -30.4520 ca         1 N5X      -0.107600
     14 C16         21.7190    10.0940   -30.9800 c          1 N5X       0.703600
     15 O1          22.9220     9.8710   -30.9820 o          1 N5X      -0.715000
     16 O3          20.8960     9.2850   -31.3850 o          1 N5X      -0.715000
     17 C14         22.1390    12.3970   -29.9620 ca         1 N5X      -0.096000
     18 C15         21.6830    13.6300   -29.4700 ca         1 N5X      -0.147000
     19 C10         20.3130    13.9310   -29.4590 ca         1 N5X       0.149000
     20 N1          19.8710    15.1790   -28.9720 nh         1 N5X      -0.793400
     21 C7          19.9630    15.5290   -27.5160 c6         1 N5X       0.168800
     22 C6          20.0570    17.0690   -27.2370 c6         1 N5X       0.192800
     23 C8          19.6700    16.3380   -29.8980 c6         1 N5X       0.168800
     24 C9          18.6720    17.4040   -29.3270 c6         1 N5X       0.192800
     25 N3          18.9870    17.8590   -27.9310 nh         1 N5X      -0.818400
     26 C5          18.6600    19.1710   -27.5160 ca         1 N5X       0.309000
     27 C           19.6970    20.0820   -27.2330 ca         1 N5X      -0.168000
     28 C4          17.3110    19.5940   -27.3840 ca         1 N5X      -0.116300
     29 C24         16.1380    18.6500   -27.6450 c3         1 N5X      -0.036800
     30 C3          17.0360    20.9170   -26.9830 ca         1 N5X      -0.089000
     31 C2          18.0810    21.8120   -26.7080 ca         1 N5X      -0.147000
     32 C1          19.4170    21.3990   -26.8280 ca         1 N5X      -0.054300
     33 C25         20.5520    22.3690   -26.5350 c3         1 N5X      -0.044800
     34 H1          12.1950    13.3340   -30.7010 ha         1 N5X       0.126500
     35 H2          14.3140    12.1680   -31.2300 ha         1 N5X       0.135500
     36 H3          14.3220    16.1380   -28.2180 ha         1 N5X       0.126500
     37 H4          16.4490    15.0050   -28.7130 ha         1 N5X       0.135500
     38 H5          17.8600    14.2090   -29.3830 hn         1 N5X       0.162000
     39 H6          19.1410    11.0010   -30.8000 ha         1 N5X       0.163000
     40 H8          23.2080    12.1900   -29.9590 ha         1 N5X       0.134000
     41 H9          22.4000    14.3590   -29.0990 ha         1 N5X       0.087000
     42 H10         19.0780    15.1370   -26.9950 h1         1 N5X       0.052450
     43 H11         20.8410    15.0430   -27.0650 h1         1 N5X       0.052450
     44 H12         21.0470    17.4200   -27.5630 h1         1 N5X       0.044450
     45 H13         19.9980    17.2290   -26.1500 h1         1 N5X       0.044450
     46 H14         20.6360    16.8270   -30.0920 h1         1 N5X       0.052450
     47 H15         19.2860    15.9870   -30.8680 h1         1 N5X       0.052450
     48 H16         18.6620    18.2670   -30.0090 h1         1 N5X       0.044450
     49 H17         17.6620    16.9700   -29.3490 h1         1 N5X       0.044450
     50 H18         20.7300    19.7690   -27.3410 ha         1 N5X       0.114000
     51 H19         16.3290    17.6500   -27.2370 hc         1 N5X       0.038700
     52 H20         15.2150    19.0140   -27.1790 hc         1 N5X       0.038700
     53 H21         15.9470    18.5480   -28.7190 hc         1 N5X       0.038700
     54 H22         16.0070    21.2530   -26.8790 ha         1 N5X       0.102000
     55 H23         17.8490    22.8300   -26.4010 ha         1 N5X       0.105000
     56 H24         20.8670    22.8870   -27.4490 hc         1 N5X       0.039367
     57 H25         20.2500    23.1300   -25.8060 hc         1 N5X       0.039367
     58 H26         21.4260    21.8490   -26.1250 hc         1 N5X       0.039367
@<TRIPOS>BOND
     1     1     2 1   
     2     2     3 ar  
     3     2     5 ar  
     4     3     4 ar  
     5     3    34 1   
     6     4     7 ar  
     7     4    35 1   
     8     5     6 ar  
     9     5    36 1   
    10     6     7 ar  
    11     6    37 1   
    12     7     8 1   
    13     8     9 2   
    14     8    10 1   
    15    10    11 1   
    16    10    38 1   
    17    11    12 ar  
    18    11    19 ar  
    19    12    13 ar  
    20    12    39 1   
    21    13    14 1   
    22    13    17 ar  
    23    14    15 1   
    24    14    16 1   
    25    17    18 ar  
    26    17    40 1   
    27    18    19 ar  
    28    18    41 1   
    29    19    20 1   
    30    20    21 1   
    31    20    23 1   
    32    21    22 1   
    33    21    42 1   
    34    21    43 1   
    35    22    25 1   
    36    22    44 1   
    37    22    45 1   
    38    23    24 1   
    39    23    46 1   
    40    23    47 1   
    41    24    25 1   
    42    24    48 1   
    43    24    49 1   
    44    25    26 1   
    45    26    27 ar  
    46    26    28 ar  
    47    27    32 ar  
    48    27    50 1   
    49    28    29 1   
    50    28    30 ar  
    51    29    51 1   
    52    29    52 1   
    53    29    53 1   
    54    30    31 ar  
    55    30    54 1   
    56    31    32 ar  
    57    31    55 1   
    58    32    33 1   
    59    33    56 1   
    60    33    57 1   
    61    33    58 1   
@<TRIPOS>SUBSTRUCTURE
     1 N5X         1 TEMP              0 ****  ****    0 ROOT
