@<TRIPOS>MOLECULE
N5X
   58    61     1     0     0
SMALL
abcg2


@<TRIPOS>ATOM
      1 CL1         11.0340    13.5520   -29.7090 cl         1 N5X      -0.226000
      2 C21         12.7430    13.3160   -29.9890 ca         1 N5X       0.132000
      3 C20         13.1950    13.0860   -31.2820 ca         1 N5X      -0.117500
      4 C19         14.5520    12.8960   -31.4940 ca         1 N5X      -0.067000
      5 C22         13.6200    13.3550   -28.9140 ca         1 N5X      -0.117500
      6 C23         14.9770    13.1730   -29.1430 ca         1 N5X      -0.067000
      7 C18         15.4590    12.9460   -30.4340 ca         1 N5X      -0.134600
      8 C17         16.9100    12.7320   -30.7440 c          1 N5X       0.601700
      9 O2          17.2620    12.1400   -31.7640 o          1 N5X      -0.577100
     10 N2          17.7730    13.2530   -29.8370 ns         1 N5X      -0.133000
     11 C11         19.1750    13.2320   -29.8260 ca         1 N5X      -0.057000
     12 C12         19.9490    12.3060   -30.5210 ca         1 N5X      -0.088000
     13 C13         21.3380    12.3060   -30.4000 ca         1 N5X      -0.107600
     14 C16         22.1790    11.2970   -31.1790 c          1 N5X       0.703600
     15 O1          23.4250    11.3390   -31.0060 o          1 N5X      -0.715000
     16 O3          21.5660    10.5020   -31.9370 o          1 N5X      -0.715000
     17 C14         21.9410    13.2400   -29.5600 ca         1 N5X      -0.096000
     18 C15         21.1780    14.1750   -28.8730 ca         1 N5X      -0.147000
     19 C10         19.7910    14.1950   -28.9980 ca         1 N5X       0.149000
     20 N1          18.9530    15.1440   -28.3540 nh         1 N5X      -0.793400
     21 C7          19.3430    15.5980   -27.0060 c6         1 N5X       0.168800
     22 C6          19.8090    17.0450   -27.0000 c6         1 N5X       0.192800
     23 C8          18.5780    16.2650   -29.2390 c6         1 N5X       0.168800
     24 C9          17.8450    17.3390   -28.4550 c6         1 N5X       0.192800
     25 N3          18.6970    17.9070   -27.3930 nh         1 N5X      -0.818400
     26 C5          18.8870    19.2960   -27.3640 ca         1 N5X       0.309000
     27 C           20.1760    19.8460   -27.3020 ca         1 N5X      -0.168000
     28 C4          17.7720    20.1670   -27.3370 ca         1 N5X      -0.116300
     29 C24         16.3580    19.6590   -27.2340 c3         1 N5X      -0.036800
     30 C3          18.0120    21.5380   -27.3080 ca         1 N5X      -0.089000
     31 C2          19.2970    22.0720   -27.2760 ca         1 N5X      -0.147000
     32 C1          20.3990    21.2210   -27.2590 ca         1 N5X      -0.054300
     33 C25         21.8030    21.7660   -27.2360 c3         1 N5X      -0.044800
     34 H1          12.4980    13.0580   -32.1080 ha         1 N5X       0.126500
     35 H2          14.9210    12.7110   -32.4940 ha         1 N5X       0.135500
     36 H3          13.2500    13.5210   -27.9120 ha         1 N5X       0.126500
     37 H4          15.6460    13.1840   -28.2930 ha         1 N5X       0.135500
     38 H5          17.4020    13.8430   -29.1020 hn         1 N5X       0.162000
     39 H6          19.4740    11.5730   -31.1500 ha         1 N5X       0.163000
     40 H8          23.0180    13.2390   -29.4610 ha         1 N5X       0.134000
     41 H9          21.6660    14.9080   -28.2440 ha         1 N5X       0.087000
     42 H10         18.4820    15.5010   -26.3380 h1         1 N5X       0.052450
     43 H11         20.1290    14.9540   -26.6190 h1         1 N5X       0.052450
     44 H12         20.6770    17.1450   -27.6660 h1         1 N5X       0.044450
     45 H13         20.1360    17.3230   -25.9960 h1         1 N5X       0.044450
     46 H14         19.4680    16.6970   -29.7150 h1         1 N5X       0.052450
     47 H15         17.9290    15.8980   -30.0370 h1         1 N5X       0.052450
     48 H16         17.5620    18.1260   -29.1500 h1         1 N5X       0.044450
     49 H17         16.9270    16.9160   -28.0380 h1         1 N5X       0.044450
     50 H18         21.0340    19.1890   -27.2990 ha         1 N5X       0.114000
     51 H19         16.3050    18.7980   -26.5640 hc         1 N5X       0.038700
     52 H20         15.7090    20.4420   -26.8420 hc         1 N5X       0.038700
     53 H21         15.9460    19.3410   -28.1940 hc         1 N5X       0.038700
     54 H22         17.1600    22.2090   -27.2720 ha         1 N5X       0.102000
     55 H23         19.4380    23.1450   -27.2380 ha         1 N5X       0.105000
     56 H24         22.1820    21.9120   -28.2530 hc         1 N5X       0.039367
     57 H25         21.8440    22.7330   -26.7320 hc         1 N5X       0.039367
     58 H26         22.4860    21.0820   -26.7300 hc         1 N5X       0.039367
@<TRIPOS>BOND
     1     1     2 1   
     2     2     3 ar  
     3     2     5 ar  
     4     3     4 ar  
     5     3    34 1   
     6     4     7 ar  
     7     4    35 1   
     8     5     6 ar  
     9     5    36 1   
    10     6     7 ar  
    11     6    37 1   
    12     7     8 1   
    13     8     9 2   
    14     8    10 1   
    15    10    11 1   
    16    10    38 1   
    17    11    12 ar  
    18    11    19 ar  
    19    12    13 ar  
    20    12    39 1   
    21    13    14 1   
    22    13    17 ar  
    23    14    15 1   
    24    14    16 1   
    25    17    18 ar  
    26    17    40 1   
    27    18    19 ar  
    28    18    41 1   
    29    19    20 1   
    30    20    21 1   
    31    20    23 1   
    32    21    22 1   
    33    21    42 1   
    34    21    43 1   
    35    22    25 1   
    36    22    44 1   
    37    22    45 1   
    38    23    24 1   
    39    23    46 1   
    40    23    47 1   
    41    24    25 1   
    42    24    48 1   
    43    24    49 1   
    44    25    26 1   
    45    26    27 ar  
    46    26    28 ar  
    47    27    32 ar  
    48    27    50 1   
    49    28    29 1   
    50    28    30 ar  
    51    29    51 1   
    52    29    52 1   
    53    29    53 1   
    54    30    31 ar  
    55    30    54 1   
    56    31    32 ar  
    57    31    55 1   
    58    32    33 1   
    59    33    56 1   
    60    33    57 1   
    61    33    58 1   
@<TRIPOS>SUBSTRUCTURE
     1 N5X         1 TEMP              0 ****  ****    0 ROOT
