@<TRIPOS>MOLECULE
N5Y
   44    46     1     0     0
SMALL
abcg2


@<TRIPOS>ATOM
      1 CAY         -3.8770    -1.8110     0.3800 ca         1 N5Y      -0.100500
      2 CAZ         -4.9200    -1.7920     1.2970 ca         1 N5Y      -0.106500
      3 CBA         -5.3540    -0.5870     1.8300 ca         1 N5Y      -0.099000
      4 CAX         -4.7440     0.5980     1.4370 ca         1 N5Y      -0.106500
      5 CAW         -3.7070     0.5790     0.5150 ca         1 N5Y      -0.100500
      6 CAV         -3.2650    -0.6270    -0.0210 ca         1 N5Y      -0.131300
      7 CAU         -2.1670    -0.6790    -1.0540 c3         1 N5Y       0.133300
      8 NAN         -1.1020     0.2950    -0.8290 n          1 N5Y      -0.332000
      9 CAO         -0.1990     0.1160     0.1940 cc         1 N5Y       0.368600
     10 NAP         -0.3670    -0.9500     0.9880 nv         1 N5Y      -0.960000
     11 CAM         -1.0260     1.3800    -1.6910 c          1 N5Y       0.627000
     12 OAL         -1.8370     1.5650    -2.5730 o          1 N5Y      -0.553000
     13 NAD          0.0200     2.2230    -1.4760 ns         1 N5Y      -0.465500
     14 CAE          1.0080     2.1090    -0.5090 c          1 N5Y       0.607200
     15 OAA          1.8940     2.9490    -0.4410 o          1 N5Y      -0.538000
     16 CAF          0.8680     0.9770     0.3420 cd         1 N5Y      -0.284600
     17 NAG          1.7810     0.8110     1.4020 n          1 N5Y      -0.299000
     18 OAC          3.3850    -0.4350     2.3870 o          1 N5Y      -0.589100
     19 CA0          2.7390    -0.1520     1.3910 c          1 N5Y       0.613700
     20 CAT          2.9630    -0.8830     0.1060 ca         1 N5Y      -0.135600
     21 CAS          2.8960    -2.2720     0.1140 ca         1 N5Y      -0.073000
     22 CAR          3.1560    -2.9900    -1.0450 ca         1 N5Y      -0.121000
     23 CAI          3.5130    -2.3230    -2.2090 ca         1 N5Y      -0.096000
     24 CAJ          3.6060    -0.9370    -2.2120 ca         1 N5Y      -0.121000
     25 CAA          1.5950     1.6160     2.6020 c3         1 N5Y       0.094300
     26 CAK          3.3250    -0.2170    -1.0610 ca         1 N5Y      -0.073000
     27 HAW         -3.2450     1.5140     0.2240 ha         1 N5Y       0.118500
     28 HAX         -5.0760     1.5420     1.8490 ha         1 N5Y       0.119500
     29 HBA         -6.1610    -0.5690     2.5500 ha         1 N5Y       0.119000
     30 HAZ         -5.3860    -2.7210     1.5990 ha         1 N5Y       0.119500
     31 HAY         -3.5360    -2.7570    -0.0260 ha         1 N5Y       0.118500
     32 HAU1        -1.7270    -1.6770    -1.1060 h1         1 N5Y       0.085700
     33 HAU2        -2.5790    -0.4780    -2.0400 h1         1 N5Y       0.085700
     34 HAP1        -1.2600    -1.4060     1.0770 hn         1 N5Y       0.500500
     35 HAP2         0.2120    -1.0230     1.8070 hn         1 N5Y       0.500500
     36 HAD          0.0730     3.0210    -2.0970 hn         1 N5Y       0.348500
     37 HAA1         0.9680     1.1090     3.3380 h1         1 N5Y       0.043367
     38 HAA2         2.5530     1.8430     3.0630 h1         1 N5Y       0.043367
     39 HAA3         1.1160     2.5510     2.3260 h1         1 N5Y       0.043367
     40 HAI          3.7260    -2.8820    -3.1110 ha         1 N5Y       0.112000
     41 HAJ          3.9000    -0.4150    -3.1140 ha         1 N5Y       0.115000
     42 HAR          3.0860    -4.0690    -1.0360 ha         1 N5Y       0.115000
     43 HAK          3.4090     0.8620    -1.0710 ha         1 N5Y       0.125500
     44 HAS          2.6290    -2.7970     1.0230 ha         1 N5Y       0.125500
@<TRIPOS>BOND
     1     1     2 ar  
     2     1     6 ar  
     3     1    31 1   
     4     2     3 ar  
     5     2    30 1   
     6     3     4 ar  
     7     3    29 1   
     8     4     5 ar  
     9     4    28 1   
    10     5     6 ar  
    11     5    27 1   
    12     6     7 1   
    13     7     8 1   
    14     7    32 1   
    15     7    33 1   
    16     8     9 1   
    17     8    11 1   
    18     9    10 1   
    19     9    16 2   
    20    10    34 1   
    21    10    35 1   
    22    11    12 2   
    23    11    13 1   
    24    13    14 1   
    25    13    36 1   
    26    14    15 2   
    27    14    16 1   
    28    16    17 1   
    29    17    19 1   
    30    17    25 1   
    31    18    19 2   
    32    19    20 1   
    33    20    21 ar  
    34    20    26 ar  
    35    21    22 ar  
    36    21    44 1   
    37    22    23 ar  
    38    22    42 1   
    39    23    24 ar  
    40    23    40 1   
    41    24    26 ar  
    42    24    41 1   
    43    25    37 1   
    44    25    38 1   
    45    25    39 1   
    46    26    43 1   
@<TRIPOS>SUBSTRUCTURE
     1 N5Y         1 TEMP              0 ****  ****    0 ROOT
