@<TRIPOS>MOLECULE
N5Y
   44    46     1     0     0
SMALL
No Charge or Current Charge


@<TRIPOS>ATOM
      1 CAY         -3.4930    -1.9090     0.2010 ca         1 N5Y      -0.100500
      2 CAZ         -4.5410    -2.0810     1.1220 ca         1 N5Y      -0.106500
      3 CBA         -5.2490    -0.9650     1.6000 ca         1 N5Y      -0.099000
      4 CAX         -4.9090     0.3230     1.1550 ca         1 N5Y      -0.106500
      5 CAW         -3.8610     0.4960     0.2350 ca         1 N5Y      -0.100500
      6 CAV         -3.1430    -0.6180    -0.2450 ca         1 N5Y      -0.131300
      7 CAU         -1.9980    -0.4320    -1.2380 c3         1 N5Y       0.133300
      8 NAN         -0.9930     0.5940    -0.8270 n          1 N5Y      -0.332000
      9 CAO         -0.0780     0.3630     0.1980 cc         1 N5Y       0.368600
     10 NAP         -0.2950    -0.7480     0.9490 nv         1 N5Y      -0.960000
     11 CAM         -0.9650     1.8030    -1.5410 c          1 N5Y       0.627000
     12 OAL         -1.7500     2.0850    -2.4310 o          1 N5Y      -0.553000
     13 NAD          0.0010     2.6780    -1.1920 ns         1 N5Y      -0.465500
     14 CAE          0.9700     2.5370    -0.2620 c          1 N5Y       0.607200
     15 OAA          1.8010     3.4130    -0.0910 o          1 N5Y      -0.538000
     16 CAF          0.9430     1.2540     0.4850 cd         1 N5Y      -0.284600
     17 NAG          1.8980     0.9420     1.4820 n          1 N5Y      -0.299000
     18 OAC          3.3180    -0.5820     2.4780 o          1 N5Y      -0.589100
     19 CA0          2.6830    -0.2540     1.4810 c          1 N5Y       0.613700
     20 CAT          2.7730    -1.1010     0.2230 ca         1 N5Y      -0.135600
     21 CAS          2.8970    -2.5030     0.3450 ca         1 N5Y      -0.073000
     22 CAR          2.9910    -3.3180    -0.7970 ca         1 N5Y      -0.121000
     23 CAI          2.9810    -2.7420    -2.0770 ca         1 N5Y      -0.096000
     24 CAJ          2.8890    -1.3480    -2.2130 ca         1 N5Y      -0.121000
     25 CAA          2.0640     1.8690     2.6250 c3         1 N5Y       0.094300
     26 CAK          2.7950    -0.5310    -1.0730 ca         1 N5Y      -0.073000
     27 HAW         -3.6080     1.4990    -0.1040 ha         1 N5Y       0.118500
     28 HAX         -5.4570     1.1870     1.5230 ha         1 N5Y       0.119500
     29 HBA         -6.0600    -1.0990     2.3130 ha         1 N5Y       0.119000
     30 HAZ         -4.8070    -3.0790     1.4630 ha         1 N5Y       0.119500
     31 HAY         -2.9570    -2.7820    -0.1650 ha         1 N5Y       0.118500
     32 HAU1        -1.4730    -1.3870    -1.3790 h1         1 N5Y       0.085700
     33 HAU2        -2.4280    -0.1890    -2.2180 h1         1 N5Y       0.085700
     34 HAP1        -1.2300    -1.1400     0.9230 hn         1 N5Y       0.500500
     35 HAP2         0.1530    -0.7840     1.8570 hn         1 N5Y       0.500500
     36 HAD          0.0120     3.5430    -1.7080 hn         1 N5Y       0.348500
     37 HAA1         1.8860     1.3370     3.5690 h1         1 N5Y       0.043367
     38 HAA2         3.0830     2.2760     2.6250 h1         1 N5Y       0.043367
     39 HAA3         1.3480     2.6970     2.5530 h1         1 N5Y       0.043367
     40 HAI          3.0550    -3.3730    -2.9600 ha         1 N5Y       0.112000
     41 HAJ          2.9010    -0.8980    -3.2030 ha         1 N5Y       0.115000
     42 HAR          3.0730    -4.3980    -0.6880 ha         1 N5Y       0.115000
     43 HAK          2.7650     0.5470    -1.2050 ha         1 N5Y       0.125500
     44 HAS          2.9040    -2.9660     1.3300 ha         1 N5Y       0.125500
@<TRIPOS>BOND
     1     1     2 ar  
     2     1     6 ar  
     3     1    31 1   
     4     2     3 ar  
     5     2    30 1   
     6     3     4 ar  
     7     3    29 1   
     8     4     5 ar  
     9     4    28 1   
    10     5     6 ar  
    11     5    27 1   
    12     6     7 1   
    13     7     8 1   
    14     7    32 1   
    15     7    33 1   
    16     8     9 1   
    17     8    11 1   
    18     9    10 1   
    19     9    16 2   
    20    10    34 1   
    21    10    35 1   
    22    11    12 2   
    23    11    13 1   
    24    13    14 1   
    25    13    36 1   
    26    14    15 2   
    27    14    16 1   
    28    16    17 1   
    29    17    19 1   
    30    17    25 1   
    31    18    19 2   
    32    19    20 1   
    33    20    21 ar  
    34    20    26 ar  
    35    21    22 ar  
    36    21    44 1   
    37    22    23 ar  
    38    22    42 1   
    39    23    24 ar  
    40    23    40 1   
    41    24    26 ar  
    42    24    41 1   
    43    25    37 1   
    44    25    38 1   
    45    25    39 1   
    46    26    43 1   
@<TRIPOS>SUBSTRUCTURE
     1 N5Y         1 TEMP              0 ****  ****    0 ROOT
