@<TRIPOS>MOLECULE
N5Z
   36    38     1     0     0
SMALL
No Charge or Current Charge


@<TRIPOS>ATOM
      1 C10        -11.1020    18.2380     3.7410 ca         1 N5Z      -0.060800
      2 C15         -8.6060    18.6260     3.5030 c2         1 N5Z      -0.244200
      3 C21         -7.0940    20.6780     5.6430 cc         1 N5Z       0.390400
      4 C01        -17.1380    14.3480     4.1520 ca         1 N5Z       0.175000
      5 C02        -17.1190    15.6600     4.6430 ca         1 N5Z      -0.152000
      6 C03        -15.9390    16.4220     4.5630 ca         1 N5Z      -0.073000
      7 C04        -14.7570    15.8830     3.9910 cp         1 N5Z      -0.053000
      8 C05        -14.8040    14.5510     3.5030 ca         1 N5Z      -0.073000
      9 C06        -15.9850    13.7900     3.5820 ca         1 N5Z      -0.152000
     10 C07        -13.5000    16.6930     3.9060 cp         1 N5Z      -0.021000
     11 C08        -13.5410    18.0900     3.6750 ca         1 N5Z      -0.102000
     12 C09        -12.3610    18.8490     3.5950 ca         1 N5Z      -0.092500
     13 C11        -11.0460    16.8490     3.9780 ca         1 N5Z      -0.092500
     14 C12        -12.2270    16.0910     4.0570 ca         1 N5Z      -0.102000
     15 C14         -9.8720    19.0800     3.6530 ce         1 N5Z      -0.130200
     16 C16         -7.3700    19.4950     3.4150 c3         1 N5Z       0.109800
     17 C18         -5.7400    18.9510     5.2900 cc         1 N5Z      -0.235000
     18 C19         -5.5030    19.5120     6.5180 cd         1 N5Z       0.229900
     19 N17         -6.7540    19.7000     4.7320 na         1 N5Z      -0.169500
     20 N20         -6.3450    20.5840     6.7340 nd         1 N5Z      -0.674000
     21 H151        -8.3880    17.5610     3.4270 ha         1 N5Z       0.187000
     22 H211        -7.8750    21.4060     5.4540 h5         1 N5Z       0.054100
     23 H021       -18.0150    16.0850     5.0870 ha         1 N5Z       0.133000
     24 H031       -15.9390    17.4340     4.9610 ha         1 N5Z       0.119000
     25 H051       -13.9230    14.1070     3.0450 ha         1 N5Z       0.119000
     26 H061       -16.0070    12.7730     3.2000 ha         1 N5Z       0.133000
     27 H081       -14.4960    18.5910     3.5420 ha         1 N5Z       0.117000
     28 H091       -12.4300    19.9190     3.4120 ha         1 N5Z       0.114500
     29 H111       -10.0930    16.3460     4.1150 ha         1 N5Z       0.114500
     30 H121       -12.1510    15.0250     4.2550 ha         1 N5Z       0.117000
     31 H141       -10.0540    20.1550     3.7080 ha         1 N5Z       0.170000
     32 H161        -6.6330    19.0260     2.7500 h1         1 N5Z       0.063700
     33 H162        -7.6260    20.4730     2.9870 h1         1 N5Z       0.063700
     34 H181        -5.2760    18.1070     4.7950 h4         1 N5Z       0.154000
     35 H191        -4.7740    19.2020     7.2580 h4         1 N5Z       0.037100
     36 F13        -18.2710    13.6170     4.2290 f          1 N5Z      -0.177000
@<TRIPOS>BOND
     1     1    12 ar  
     2     1    13 ar  
     3     1    15 1   
     4     2    15 2   
     5     2    16 1   
     6     2    21 1   
     7     3    19 1   
     8     3    20 2   
     9     3    22 1   
    10     4     5 ar  
    11     4     9 ar  
    12     4    36 1   
    13     5     6 ar  
    14     5    23 1   
    15     6     7 ar  
    16     6    24 1   
    17     7     8 ar  
    18     7    10 1   
    19     8     9 ar  
    20     8    25 1   
    21     9    26 1   
    22    10    11 ar  
    23    10    14 ar  
    24    11    12 ar  
    25    11    27 1   
    26    12    28 1   
    27    13    14 ar  
    28    13    29 1   
    29    14    30 1   
    30    15    31 1   
    31    16    19 1   
    32    16    32 1   
    33    16    33 1   
    34    17    18 2   
    35    17    19 1   
    36    17    34 1   
    37    18    20 1   
    38    18    35 1   
@<TRIPOS>SUBSTRUCTURE
     1 N5Z         1 TEMP              0 ****  ****    0 ROOT
