@<TRIPOS>MOLECULE
N5Z
   36    38     1     0     0
SMALL
abcg2


@<TRIPOS>ATOM
      1 C10        -11.1630    18.2060     3.7410 ca         1 N5Z      -0.060800
      2 C15         -8.6980    18.6550     3.7910 c2         1 N5Z      -0.244200
      3 C21         -7.1000    20.2100     5.9690 cc         1 N5Z       0.390400
      4 C01        -17.1260    14.4080     4.0870 ca         1 N5Z       0.175000
      5 C02        -17.1650    15.7460     4.4290 ca         1 N5Z      -0.152000
      6 C03        -15.9900    16.4800     4.3750 ca         1 N5Z      -0.073000
      7 C04        -14.7840    15.8940     3.9850 cp         1 N5Z      -0.053000
      8 C05        -14.7890    14.5380     3.6540 ca         1 N5Z      -0.073000
      9 C06        -15.9530    13.7870     3.7020 ca         1 N5Z      -0.152000
     10 C07        -13.5440    16.6900     3.9110 cp         1 N5Z      -0.021000
     11 C08        -13.5650    18.0140     3.4740 ca         1 N5Z      -0.102000
     12 C09        -12.3990    18.7550     3.3940 ca         1 N5Z      -0.092500
     13 C11        -11.1440    16.8820     4.1890 ca         1 N5Z      -0.092500
     14 C12        -12.3090    16.1420     4.2730 ca         1 N5Z      -0.102000
     15 C14         -9.9640    19.0350     3.6130 ce         1 N5Z      -0.130200
     16 C16         -7.5430    19.5820     3.5910 c3         1 N5Z       0.109800
     17 C18         -5.4350    19.2470     4.9380 cc         1 N5Z      -0.235000
     18 C19         -5.0970    19.5420     6.2280 cd         1 N5Z       0.229900
     19 N17         -6.7200    19.6840     4.7860 na         1 N5Z      -0.169500
     20 N20         -6.1460    20.1460     6.8630 nd         1 N5Z      -0.674000
     21 H151        -8.4450    17.6370     4.0730 ha         1 N5Z       0.187000
     22 H211        -8.0840    20.6300     6.1200 h5         1 N5Z       0.054100
     23 H021       -18.0930    16.2080     4.7400 ha         1 N5Z       0.133000
     24 H031       -16.0170    17.5230     4.6620 ha         1 N5Z       0.119000
     25 H051       -13.8750    14.0560     3.3280 ha         1 N5Z       0.119000
     26 H061       -15.9480    12.7390     3.4340 ha         1 N5Z       0.133000
     27 H081       -14.4990    18.4690     3.1680 ha         1 N5Z       0.117000
     28 H091       -12.4450    19.7790     3.0420 ha         1 N5Z       0.114500
     29 H111       -10.2130    16.4170     4.4880 ha         1 N5Z       0.114500
     30 H121       -12.2580    15.1260     4.6440 ha         1 N5Z       0.117000
     31 H141       -10.1500    20.0670     3.3260 ha         1 N5Z       0.170000
     32 H161        -6.8960    19.2210     2.7900 h1         1 N5Z       0.063700
     33 H162        -7.8880    20.5770     3.3050 h1         1 N5Z       0.063700
     34 H181        -4.8900    18.7790     4.1340 h4         1 N5Z       0.154000
     35 H191        -4.1590    19.3540     6.7260 h4         1 N5Z       0.037100
     36 F13        -18.2600    13.6910     4.1290 f          1 N5Z      -0.177000
@<TRIPOS>BOND
     1     1    12 ar  
     2     1    13 ar  
     3     1    15 1   
     4     2    15 2   
     5     2    16 1   
     6     2    21 1   
     7     3    19 1   
     8     3    20 2   
     9     3    22 1   
    10     4     5 ar  
    11     4     9 ar  
    12     4    36 1   
    13     5     6 ar  
    14     5    23 1   
    15     6     7 ar  
    16     6    24 1   
    17     7     8 ar  
    18     7    10 1   
    19     8     9 ar  
    20     8    25 1   
    21     9    26 1   
    22    10    11 ar  
    23    10    14 ar  
    24    11    12 ar  
    25    11    27 1   
    26    12    28 1   
    27    13    14 ar  
    28    13    29 1   
    29    14    30 1   
    30    15    31 1   
    31    16    19 1   
    32    16    32 1   
    33    16    33 1   
    34    17    18 2   
    35    17    19 1   
    36    17    34 1   
    37    18    20 1   
    38    18    35 1   
@<TRIPOS>SUBSTRUCTURE
     1 N5Z         1 TEMP              0 ****  ****    0 ROOT
