@<TRIPOS>MOLECULE
N61
   50    52     1     0     0
SMALL
No Charge or Current Charge


@<TRIPOS>ATOM
      1 O1           1.2380    -1.1810    -0.4530 o          1 N61      -0.584100
      2 C9           1.1570     0.0160    -0.2170 c          1 N61       0.674100
      3 N3           2.2540     0.8160     0.0510 ns         1 N61      -0.417100
      4 C8           3.6020     0.4690     0.1070 cc         1 N61       0.007600
      5 C7           4.1800    -0.7500    -0.0880 cd         1 N61      -0.224000
      6 C2           5.5740    -0.5930     0.0760 cd         1 N61       0.279300
      7 C3           6.6180    -1.7050    -0.0530 c3         1 N61      -0.072300
      8 C6           6.3100    -2.8110     0.9900 c3         1 N61      -0.080433
      9 C5           6.5410    -2.3080    -1.4800 c3         1 N61      -0.080433
     10 C4           8.0670    -1.1880     0.1880 c3         1 N61      -0.080433
     11 N2           5.8990     0.6590     0.3630 nc         1 N61      -0.520800
     12 N1           4.6800     1.3080     0.3810 na         1 N61       0.089800
     13 C1           4.6170     2.7490     0.6700 c3         1 N61       0.068900
     14 N4          -0.0290     0.7340    -0.1800 ns         1 N61      -0.164000
     15 C10         -1.3840     0.3570    -0.3960 ca         1 N61      -0.004000
     16 C20         -1.7820    -0.9390    -0.7970 ca         1 N61      -0.139500
     17 C19         -3.1430    -1.2360    -0.9930 ca         1 N61      -0.085000
     18 C13         -4.1200    -0.2500    -0.7850 ca         1 N61       0.064100
     19 C12         -3.7320     1.0480    -0.4030 ca         1 N61      -0.085000
     20 C11         -2.3710     1.3440    -0.2070 ca         1 N61      -0.139500
     21 O2          -5.4440    -0.5640    -0.9980 os         1 N61      -0.241200
     22 C14         -6.4600    -0.1090    -0.1880 ca         1 N61       0.173100
     23 C18         -6.2930     0.0410     1.1970 ca         1 N61      -0.220500
     24 C17         -7.3760     0.4920     1.9630 ca         1 N61       0.361900
     25 N5          -8.5840     0.7840     1.4270 nb         1 N61      -0.686000
     26 C16         -8.7400     0.6250     0.0930 ca         1 N61       0.361900
     27 C15         -7.7100     0.1780    -0.7460 ca         1 N61      -0.220500
     28 H1           2.0190     1.7850     0.2260 hn         1 N61       0.317500
     29 H2           3.6780    -1.6790    -0.3250 ha         1 N61       0.167000
     30 H3           5.3160    -3.2440     0.8270 hc         1 N61       0.036700
     31 H4           7.0440    -3.6250     0.9300 hc         1 N61       0.036700
     32 H5           6.3380    -2.4030     2.0080 hc         1 N61       0.036700
     33 H6           6.7340    -1.5390    -2.2370 hc         1 N61       0.036700
     34 H7           7.2820    -3.1070    -1.6100 hc         1 N61       0.036700
     35 H8           5.5500    -2.7340    -1.6780 hc         1 N61       0.036700
     36 H9           8.1730    -0.7650     1.1950 hc         1 N61       0.036700
     37 H10          8.7950    -2.0020     0.0900 hc         1 N61       0.036700
     38 H11          8.3350    -0.4120    -0.5390 hc         1 N61       0.036700
     39 H12          4.0030     2.9160     1.5630 h1         1 N61       0.053700
     40 H13          5.6250     3.1440     0.8470 h1         1 N61       0.053700
     41 H14          4.1700     3.2740    -0.1840 h1         1 N61       0.053700
     42 H15          0.0840     1.7140     0.0410 hn         1 N61       0.148000
     43 H16         -1.0580    -1.7280    -0.9660 ha         1 N61       0.132500
     44 H17         -3.4430    -2.2340    -1.3030 ha         1 N61       0.133000
     45 H18         -4.4780     1.8260    -0.2620 ha         1 N61       0.133000
     46 H19         -2.0840     2.3500     0.0920 ha         1 N61       0.132500
     47 H20         -5.3480    -0.1900     1.6790 ha         1 N61       0.136000
     48 H21         -7.2780     0.6220     3.0400 h4         1 N61       0.018600
     49 H22         -9.7230     0.8610    -0.3130 h4         1 N61       0.018600
     50 H23         -7.8830     0.0630    -1.8110 ha         1 N61       0.136000
@<TRIPOS>BOND
     1     1     2 2   
     2     2     3 1   
     3     2    14 1   
     4     3     4 1   
     5     3    28 1   
     6     4     5 2   
     7     4    12 1   
     8     5     6 1   
     9     5    29 1   
    10     6     7 1   
    11     6    11 2   
    12     7     8 1   
    13     7     9 1   
    14     7    10 1   
    15     8    30 1   
    16     8    31 1   
    17     8    32 1   
    18     9    33 1   
    19     9    34 1   
    20     9    35 1   
    21    10    36 1   
    22    10    37 1   
    23    10    38 1   
    24    11    12 1   
    25    12    13 1   
    26    13    39 1   
    27    13    40 1   
    28    13    41 1   
    29    14    15 1   
    30    14    42 1   
    31    15    16 ar  
    32    15    20 ar  
    33    16    17 ar  
    34    16    43 1   
    35    17    18 ar  
    36    17    44 1   
    37    18    19 ar  
    38    18    21 1   
    39    19    20 ar  
    40    19    45 1   
    41    20    46 1   
    42    21    22 1   
    43    22    23 ar  
    44    22    27 ar  
    45    23    24 ar  
    46    23    47 1   
    47    24    25 ar  
    48    24    48 1   
    49    25    26 ar  
    50    26    27 ar  
    51    26    49 1   
    52    27    50 1   
@<TRIPOS>SUBSTRUCTURE
     1 N61         1 TEMP              0 ****  ****    0 ROOT
