@<TRIPOS>MOLECULE
N61
   50    52     1     0     0
SMALL
abcg2


@<TRIPOS>ATOM
      1 O1           1.1190    -0.8230    -0.6880 o          1 N61      -0.584100
      2 C9           1.1080     0.3160    -0.2620 c          1 N61       0.674100
      3 N3           2.2390     0.9690     0.1540 ns         1 N61      -0.417100
      4 C8           3.5090     0.4240     0.1240 cc         1 N61       0.007600
      5 C7           3.9850    -0.8650     0.0040 cd         1 N61      -0.224000
      6 C2           5.3860    -0.7260     0.1000 cd         1 N61       0.279300
      7 C3           6.4190    -1.8190    -0.0010 c3         1 N61      -0.072300
      8 C6           5.9370    -3.0540     0.7650 c3         1 N61      -0.080433
      9 C5           6.6060    -2.1870    -1.4800 c3         1 N61      -0.080433
     10 C4           7.7600    -1.3570     0.5700 c3         1 N61      -0.080433
     11 N2           5.7270     0.5350     0.2640 nc         1 N61      -0.520800
     12 N1           4.5810     1.2300     0.2650 na         1 N61       0.089800
     13 C1           4.5850     2.6610     0.4460 c3         1 N61       0.068900
     14 N4          -0.0150     1.0860    -0.1370 ns         1 N61      -0.164000
     15 C10         -1.3270     0.7140    -0.4310 ca         1 N61      -0.004000
     16 C20         -1.7820    -0.6050    -0.4290 ca         1 N61      -0.139500
     17 C19         -3.1180    -0.8790    -0.6830 ca         1 N61      -0.085000
     18 C13         -4.0060     0.1510    -0.9360 ca         1 N61       0.064100
     19 C12         -3.5710     1.4660    -0.9380 ca         1 N61      -0.085000
     20 C11         -2.2370     1.7410    -0.6930 ca         1 N61      -0.139500
     21 O2          -5.3230    -0.1390    -1.2220 os         1 N61      -0.241200
     22 C14         -6.2380    -0.0740    -0.2350 ca         1 N61       0.173100
     23 C18         -5.9410     0.2000     1.0950 ca         1 N61      -0.220500
     24 C17         -6.9930     0.2350     1.9990 ca         1 N61       0.361900
     25 N5          -8.2640     0.0250     1.6810 nb         1 N61      -0.686000
     26 C16         -8.5260    -0.2380     0.4030 ca         1 N61       0.361900
     27 C15         -7.5660    -0.3010    -0.5880 ca         1 N61      -0.220500
     28 H1           2.1430     1.8860     0.5630 hn         1 N61       0.317500
     29 H2           3.4150    -1.7670    -0.1250 ha         1 N61       0.167000
     30 H3           5.0090    -3.4510     0.3510 hc         1 N61       0.036700
     31 H4           6.6850    -3.8480     0.7120 hc         1 N61       0.036700
     32 H5           5.7630    -2.8280     1.8190 hc         1 N61       0.036700
     33 H6           6.9580    -1.3290    -2.0560 hc         1 N61       0.036700
     34 H7           7.3420    -2.9870    -1.5860 hc         1 N61       0.036700
     35 H8           5.6720    -2.5310    -1.9270 hc         1 N61       0.036700
     36 H9           7.6750    -1.0730     1.6200 hc         1 N61       0.036700
     37 H10          8.4890    -2.1650     0.4990 hc         1 N61       0.036700
     38 H11          8.1550    -0.5010     0.0220 hc         1 N61       0.036700
     39 H12          4.2110     2.9430     1.4310 h1         1 N61       0.053700
     40 H13          5.6090     3.0080     0.3510 h1         1 N61       0.053700
     41 H14          3.9810     3.1490    -0.3180 h1         1 N61       0.053700
     42 H15          0.1140     2.0680     0.0580 hn         1 N61       0.148000
     43 H16         -1.1120    -1.4250    -0.2250 ha         1 N61       0.132500
     44 H17         -3.4630    -1.9050    -0.6790 ha         1 N61       0.133000
     45 H18         -4.2620     2.2750    -1.1390 ha         1 N61       0.133000
     46 H19         -1.8980     2.7700    -0.7010 ha         1 N61       0.132500
     47 H20         -4.9330     0.3850     1.4400 ha         1 N61       0.136000
     48 H21         -6.7810     0.4470     3.0410 h4         1 N61       0.018600
     49 H22         -9.5660    -0.4080     0.1460 h4         1 N61       0.018600
     50 H23         -7.8410    -0.5170    -1.6120 ha         1 N61       0.136000
@<TRIPOS>BOND
     1     1     2 2   
     2     2     3 1   
     3     2    14 1   
     4     3     4 1   
     5     3    28 1   
     6     4     5 2   
     7     4    12 1   
     8     5     6 1   
     9     5    29 1   
    10     6     7 1   
    11     6    11 2   
    12     7     8 1   
    13     7     9 1   
    14     7    10 1   
    15     8    30 1   
    16     8    31 1   
    17     8    32 1   
    18     9    33 1   
    19     9    34 1   
    20     9    35 1   
    21    10    36 1   
    22    10    37 1   
    23    10    38 1   
    24    11    12 1   
    25    12    13 1   
    26    13    39 1   
    27    13    40 1   
    28    13    41 1   
    29    14    15 1   
    30    14    42 1   
    31    15    16 ar  
    32    15    20 ar  
    33    16    17 ar  
    34    16    43 1   
    35    17    18 ar  
    36    17    44 1   
    37    18    19 ar  
    38    18    21 1   
    39    19    20 ar  
    40    19    45 1   
    41    20    46 1   
    42    21    22 1   
    43    22    23 ar  
    44    22    27 ar  
    45    23    24 ar  
    46    23    47 1   
    47    24    25 ar  
    48    24    48 1   
    49    25    26 ar  
    50    26    27 ar  
    51    26    49 1   
    52    27    50 1   
@<TRIPOS>SUBSTRUCTURE
     1 N61         1 TEMP              0 ****  ****    0 ROOT
