@<TRIPOS>MOLECULE
N62
   64    68     1     0     0
SMALL
No Charge or Current Charge


@<TRIPOS>ATOM
      1 F3         -20.5080    14.0570     4.9930 f          1 N62      -0.174000
      2 C11        -20.4590    13.4880     3.7660 ca         1 N62       0.204000
      3 C13        -21.5060    12.6500     3.3730 ca         1 N62      -0.170000
      4 C10        -19.3710    13.7270     2.9020 ca         1 N62      -0.080000
      5 C19        -18.3100    14.5620     3.3200 ca         1 N62      -0.088000
      6 C20        -17.2090    14.7860     2.4820 ca         1 N62      -0.103000
      7 C21        -17.1540    14.1710     1.2250 ca         1 N62      -0.089000
      8 C22        -18.2040    13.3430     0.7980 ca         1 N62      -0.096000
      9 C12        -19.3390    13.1190     1.6170 ca         1 N62       0.021000
     10 C16        -20.4200    12.2790     1.2090 ca         1 N62      -0.149600
     11 C1         -21.4880    12.0500     2.1070 ca         1 N62      -0.059000
     12 C27        -20.4910    11.6350    -0.1580 c          1 N62       0.615700
     13 O8         -20.1650    12.2030    -1.1930 o          1 N62      -0.624100
     14 N1         -21.0210    10.3650    -0.1900 ns         1 N62      -0.488900
     15 C28        -21.2040     9.5600    -1.4100 c3         1 N62       0.103000
     16 C7         -19.9480     8.7460    -1.8560 c6         1 N62       0.110300
     17 C8         -18.6390     9.5890    -1.9820 c6         1 N62       0.153300
     18 O3         -18.8120    10.6840    -2.9080 oh         1 N62      -0.716000
     19 O2         -19.7550     7.6800    -0.8970 os         1 N62      -0.433000
     20 C15        -18.7080     6.7460    -1.2740 c6         1 N62       0.146300
     21 C18        -18.6980     5.5560    -0.2570 c3         1 N62       0.168600
     22 O6         -19.9470     4.8380    -0.2120 oh         1 N62      -0.708000
     23 C9         -17.3250     7.4700    -1.3700 c6         1 N62       0.103300
     24 O5         -16.8580     7.9400    -0.0860 oh         1 N62      -0.700000
     25 C3         -17.4380     8.6660    -2.3750 c6         1 N62       0.176300
     26 O1         -16.2090     9.4440    -2.4400 os         1 N62      -0.431000
     27 C2         -15.0260     8.8030    -2.9540 c3         1 N62       0.212800
     28 C4         -14.1770     8.3850    -1.7770 cc         1 N62      -0.250400
     29 C6         -13.7970     9.2470    -0.7690 cd         1 N62      -0.054200
     30 C17        -12.9760     8.7690     0.3410 ca         1 N62      -0.175800
     31 C26        -12.5760     9.6120     1.3990 ca         1 N62       0.189000
     32 F2         -12.9540    10.9120     1.4110 f          1 N62      -0.144000
     33 C25        -11.7850     9.1040     2.4490 ca         1 N62       0.103000
     34 F1         -11.4000     9.9090     3.4670 f          1 N62      -0.155000
     35 C24        -11.3900     7.7560     2.4460 ca         1 N62      -0.083000
     36 C23        -11.7870     6.9150     1.3890 ca         1 N62      -0.122000
     37 C14        -12.5770     7.4240     0.3440 ca         1 N62       0.175100
     38 O4         -12.9520     6.5890    -0.6790 os         1 N62      -0.328200
     39 C5         -13.7240     6.9650    -1.7500 c          1 N62       0.672300
     40 O7         -14.0090     6.1540    -2.6190 o          1 N62      -0.481000
     41 H1         -22.3390    12.4750     4.0490 ha         1 N62       0.136000
     42 H2         -18.3290    15.0370     4.2990 ha         1 N62       0.126000
     43 H3         -16.3940    15.4270     2.8110 ha         1 N62       0.118000
     44 H4         -16.2930    14.3320     0.5800 ha         1 N62       0.118000
     45 H5         -18.1010    12.8720    -0.1740 ha         1 N62       0.134000
     46 H6         -22.3340    11.4280     1.8180 ha         1 N62       0.121000
     47 H7         -21.2460     9.9430     0.7030 hn         1 N62       0.330500
     48 H8         -21.5060    10.2220    -2.2330 h1         1 N62       0.072700
     49 H9         -22.0310     8.8580    -1.2440 h1         1 N62       0.072700
     50 H10        -20.1790     8.2920    -2.8310 h1         1 N62       0.052700
     51 H11        -18.4090     9.9940    -0.9860 h1         1 N62       0.064700
     52 H12        -19.3190    11.3780    -2.3950 ho         1 N62       0.538000
     53 H13        -18.9530     6.3290    -2.2620 h1         1 N62       0.053700
     54 H14        -17.8860     4.8740    -0.5400 h1         1 N62       0.027200
     55 H15        -18.4590     5.9520     0.7390 h1         1 N62       0.027200
     56 H16        -19.8710     4.1770     0.5150 ho         1 N62       0.506000
     57 H17        -16.6050     6.7470    -1.7780 h1         1 N62       0.041700
     58 H18        -16.1370     8.5800    -0.2820 ho         1 N62       0.502000
     59 H19        -17.6380     8.2600    -3.3780 h1         1 N62       0.050700
     60 H20        -14.4490     9.5180    -3.5550 h1         1 N62       0.063200
     61 H21        -15.2840     7.9620    -3.6120 h1         1 N62       0.063200
     62 H22        -14.1110    10.2900    -0.8110 ha         1 N62       0.234000
     63 H23        -10.7790     7.3660     3.2570 ha         1 N62       0.144000
     64 H24        -11.4850     5.8710     1.3780 ha         1 N62       0.149000
@<TRIPOS>BOND
     1     1     2 1   
     2     2     3 ar  
     3     2     4 ar  
     4     3    11 ar  
     5     3    41 1   
     6     4     5 ar  
     7     4     9 ar  
     8     5     6 ar  
     9     5    42 1   
    10     6     7 ar  
    11     6    43 1   
    12     7     8 ar  
    13     7    44 1   
    14     8     9 ar  
    15     8    45 1   
    16     9    10 ar  
    17    10    11 ar  
    18    10    12 1   
    19    11    46 1   
    20    12    13 2   
    21    12    14 1   
    22    14    15 1   
    23    14    47 1   
    24    15    16 1   
    25    15    48 1   
    26    15    49 1   
    27    16    17 1   
    28    16    19 1   
    29    16    50 1   
    30    17    18 1   
    31    17    25 1   
    32    17    51 1   
    33    18    52 1   
    34    19    20 1   
    35    20    21 1   
    36    20    23 1   
    37    20    53 1   
    38    21    22 1   
    39    21    54 1   
    40    21    55 1   
    41    22    56 1   
    42    23    24 1   
    43    23    25 1   
    44    23    57 1   
    45    24    58 1   
    46    25    26 1   
    47    25    59 1   
    48    26    27 1   
    49    27    28 1   
    50    27    60 1   
    51    27    61 1   
    52    28    29 2   
    53    28    39 1   
    54    29    30 1   
    55    29    62 1   
    56    30    31 ar  
    57    30    37 ar  
    58    31    32 1   
    59    31    33 ar  
    60    33    34 1   
    61    33    35 ar  
    62    35    36 ar  
    63    35    63 1   
    64    36    37 ar  
    65    36    64 1   
    66    37    38 1   
    67    38    39 1   
    68    39    40 2   
@<TRIPOS>SUBSTRUCTURE
     1 N62         1 TEMP              0 ****  ****    0 ROOT
