@<TRIPOS>MOLECULE
N62
   64    68     1     0     0
SMALL
abcg2


@<TRIPOS>ATOM
      1 F3         -19.8520    13.6860     4.9060 f          1 N62      -0.174000
      2 C11        -19.9840    13.1950     3.6670 ca         1 N62       0.204000
      3 C13        -21.2040    12.7660     3.2480 ca         1 N62      -0.170000
      4 C10        -18.8280    13.1440     2.8590 ca         1 N62      -0.080000
      5 C19        -17.5650    13.5660     3.3330 ca         1 N62      -0.088000
      6 C20        -16.4630    13.4800     2.5280 ca         1 N62      -0.103000
      7 C21        -16.5830    12.9730     1.2210 ca         1 N62      -0.089000
      8 C22        -17.7960    12.5670     0.7360 ca         1 N62      -0.096000
      9 C12        -18.9620    12.6380     1.5370 ca         1 N62       0.021000
     10 C16        -20.2430    12.1880     1.1010 ca         1 N62      -0.149600
     11 C1         -21.3210    12.2460     1.9470 ca         1 N62      -0.059000
     12 C27        -20.4320    11.6680    -0.2860 c          1 N62       0.615700
     13 O8         -20.0940    12.3230    -1.2710 o          1 N62      -0.624100
     14 N1         -20.9920    10.4540    -0.3610 ns         1 N62      -0.488900
     15 C28        -21.2060     9.7490    -1.6050 c3         1 N62       0.103000
     16 C7         -20.0530     8.8220    -1.9720 c6         1 N62       0.110300
     17 C8         -18.7090     9.5580    -2.0760 c6         1 N62       0.153300
     18 O3         -18.7380    10.5080    -3.1080 oh         1 N62      -0.716000
     19 O2         -20.0020     7.8090    -0.9970 os         1 N62      -0.433000
     20 C15        -19.0170     6.8340    -1.2570 c6         1 N62       0.146300
     21 C18        -19.1380     5.7420    -0.2180 c3         1 N62       0.168600
     22 O6         -20.3690     5.0830    -0.3910 oh         1 N62      -0.708000
     23 C9         -17.6240     7.4690    -1.2640 c6         1 N62       0.103300
     24 O5         -17.3150     8.0470    -0.0180 oh         1 N62      -0.700000
     25 C3         -17.6020     8.5510    -2.3460 c6         1 N62       0.176300
     26 O1         -16.3940     9.2690    -2.4160 os         1 N62      -0.431000
     27 C2         -15.2490     8.5430    -2.7670 c3         1 N62       0.212800
     28 C4         -14.2620     8.5050    -1.6350 cc         1 N62      -0.250400
     29 C6         -14.4250     9.1770    -0.4820 cd         1 N62      -0.054200
     30 C17        -13.4140     9.1220     0.5360 ca         1 N62      -0.175800
     31 C26        -13.5110     9.7820     1.7580 ca         1 N62       0.189000
     32 F2         -14.5950    10.5070     2.0240 f          1 N62      -0.144000
     33 C25        -12.5020     9.6940     2.6910 ca         1 N62       0.103000
     34 F1         -12.6290    10.3430     3.8510 f          1 N62      -0.155000
     35 C24        -11.3700     8.9400     2.4310 ca         1 N62      -0.083000
     36 C23        -11.2450     8.2700     1.2280 ca         1 N62      -0.122000
     37 C14        -12.2660     8.3680     0.2950 ca         1 N62       0.175100
     38 O4         -12.1250     7.7080    -0.8750 os         1 N62      -0.328200
     39 C5         -13.0510     7.7290    -1.8640 c          1 N62       0.672300
     40 O7         -12.8100     7.1060    -2.8660 o          1 N62      -0.481000
     41 H1         -22.0650    12.8240     3.9000 ha         1 N62       0.136000
     42 H2         -17.4680    13.9530     4.3380 ha         1 N62       0.126000
     43 H3         -15.4980    13.7980     2.8970 ha         1 N62       0.118000
     44 H4         -15.7070    12.9050     0.5900 ha         1 N62       0.118000
     45 H5         -17.8540    12.1900    -0.2740 ha         1 N62       0.134000
     46 H6         -22.2930    11.9080     1.6140 ha         1 N62       0.121000
     47 H7         -21.1410     9.9460     0.4960 hn         1 N62       0.330500
     48 H8         -21.3730    10.4700    -2.4030 h1         1 N62       0.072700
     49 H9         -22.1200     9.1620    -1.5150 h1         1 N62       0.072700
     50 H10        -20.2850     8.3930    -2.9610 h1         1 N62       0.052700
     51 H11        -18.4870    10.0250    -1.1070 h1         1 N62       0.064700
     52 H12        -19.2110    11.2810    -2.7680 ho         1 N62       0.538000
     53 H13        -19.1820     6.3860    -2.2520 h1         1 N62       0.053700
     54 H14        -18.2890     5.0570    -0.3470 h1         1 N62       0.027200
     55 H15        -19.0500     6.1790     0.7840 h1         1 N62       0.027200
     56 H16        -20.4700     4.4460     0.3220 ho         1 N62       0.506000
     57 H17        -16.9010     6.6840    -1.5240 h1         1 N62       0.041700
     58 H18        -16.7880     7.4270     0.4920 ho         1 N62       0.502000
     59 H19        -17.7990     8.0520    -3.3080 h1         1 N62       0.050700
     60 H20        -14.7760     9.0270    -3.6300 h1         1 N62       0.063200
     61 H21        -15.4840     7.5220    -3.0910 h1         1 N62       0.063200
     62 H22        -15.3210     9.7580    -0.3170 ha         1 N62       0.234000
     63 H23        -10.5880     8.8810     3.1760 ha         1 N62       0.144000
     64 H24        -10.3640     7.6790     1.0160 ha         1 N62       0.149000
@<TRIPOS>BOND
     1     1     2 1   
     2     2     3 ar  
     3     2     4 ar  
     4     3    11 ar  
     5     3    41 1   
     6     4     5 ar  
     7     4     9 ar  
     8     5     6 ar  
     9     5    42 1   
    10     6     7 ar  
    11     6    43 1   
    12     7     8 ar  
    13     7    44 1   
    14     8     9 ar  
    15     8    45 1   
    16     9    10 ar  
    17    10    11 ar  
    18    10    12 1   
    19    11    46 1   
    20    12    13 2   
    21    12    14 1   
    22    14    15 1   
    23    14    47 1   
    24    15    16 1   
    25    15    48 1   
    26    15    49 1   
    27    16    17 1   
    28    16    19 1   
    29    16    50 1   
    30    17    18 1   
    31    17    25 1   
    32    17    51 1   
    33    18    52 1   
    34    19    20 1   
    35    20    21 1   
    36    20    23 1   
    37    20    53 1   
    38    21    22 1   
    39    21    54 1   
    40    21    55 1   
    41    22    56 1   
    42    23    24 1   
    43    23    25 1   
    44    23    57 1   
    45    24    58 1   
    46    25    26 1   
    47    25    59 1   
    48    26    27 1   
    49    27    28 1   
    50    27    60 1   
    51    27    61 1   
    52    28    29 2   
    53    28    39 1   
    54    29    30 1   
    55    29    62 1   
    56    30    31 ar  
    57    30    37 ar  
    58    31    32 1   
    59    31    33 ar  
    60    33    34 1   
    61    33    35 ar  
    62    35    36 ar  
    63    35    63 1   
    64    36    37 ar  
    65    36    64 1   
    66    37    38 1   
    67    38    39 1   
    68    39    40 2   
@<TRIPOS>SUBSTRUCTURE
     1 N62         1 TEMP              0 ****  ****    0 ROOT
