@<TRIPOS>MOLECULE
N64
   50    52     1     0     0
SMALL
abcg2


@<TRIPOS>ATOM
      1 N1           2.4840     0.7430     0.1110 ns         1 N64      -0.523900
      2 N3          -4.7770     0.3780     0.1720 nh         1 N64      -0.784400
      3 C4           3.6490     0.2040    -0.2930 c          1 N64       0.669100
      4 C5           1.2430     0.4840    -0.5880 c3         1 N64       0.119000
      5 C6           0.1080     1.2720     0.0460 c3         1 N64      -0.100400
      6 C7          -1.2100     1.0030    -0.6700 c3         1 N64       0.174800
      7 C8          -2.7970     1.4510     1.1400 c6         1 N64       0.162300
      8 C10         -4.3040     0.7610    -1.1550 c6         1 N64       0.161800
      9 C13         -6.9550    -0.3770    -0.5960 ca         1 N64      -0.164000
     10 C15         -8.0380    -2.2930     0.3970 ca         1 N64      -0.145000
     11 C17         -5.8510    -1.5930     1.1490 ca         1 N64      -0.164000
     12 N            4.7300     0.5560     0.4900 ns         1 N64      -0.498400
     13 O            3.7490    -0.5300    -1.2640 o          1 N64      -0.618100
     14 C1           7.9100    -0.6580    -0.4380 cc         1 N64       0.189300
     15 C11         -3.4040     1.9860    -1.0720 c6         1 N64       0.162300
     16 C12         -5.8340    -0.5270     0.2380 ca         1 N64       0.294000
     17 C14         -8.0300    -1.2440    -0.5170 ca         1 N64      -0.080500
     18 C16         -6.9400    -2.4520     1.2270 ca         1 N64      -0.080500
     19 C2           6.5980    -0.6100    -0.7680 cd         1 N64      -0.241000
     20 C3           6.0270     0.1600     0.2830 cd         1 N64       0.424900
     21 C9          -3.6930     0.2160     1.1240 c6         1 N64       0.161800
     22 N2          -2.2860     1.8380    -0.1610 n3         1 N64      -0.723600
     23 N4           6.9320     0.5280     1.1510 nc         1 N64      -0.445300
     24 O1           8.1150     0.0130     0.6950 os         1 N64      -0.068700
     25 H1           2.4600     1.3600     0.9060 hn         1 N64       0.316500
     26 H2           1.3400     0.7640    -1.6410 h1         1 N64       0.053200
     27 H3           1.0130    -0.5860    -0.5640 h1         1 N64       0.053200
     28 H4           0.0310     1.0050     1.1040 hc         1 N64       0.052200
     29 H5           0.3240     2.3420    -0.0010 hc         1 N64       0.052200
     30 H6          -1.0820     1.2440    -1.7290 h1         1 N64       0.035700
     31 H7          -1.4280    -0.0750    -0.6290 h1         1 N64       0.035700
     32 H8          -3.3730     2.2900     1.5420 h1         1 N64       0.060200
     33 H9          -1.9740     1.2800     1.8350 h1         1 N64       0.060200
     34 H10         -3.7690    -0.0740    -1.6300 h1         1 N64       0.041950
     35 H11         -5.1440     1.0070    -1.8010 h1         1 N64       0.041950
     36 H12         -7.0040     0.4400    -1.3030 ha         1 N64       0.110500
     37 H13         -8.8830    -2.9650     0.4600 ha         1 N64       0.114000
     38 H14         -5.0120    -1.7760     1.8050 ha         1 N64       0.110500
     39 H15          4.5780     1.1330     1.3050 hn         1 N64       0.331500
     40 H16          9.8720    -0.5790    -1.2740 hc         1 N64       0.062367
     41 H17          9.4890    -2.0910    -0.4540 hc         1 N64       0.062367
     42 H18          8.7790    -1.7420    -2.0320 hc         1 N64       0.062367
     43 H19         -3.0330     2.2270    -2.0710 h1         1 N64       0.060200
     44 H20         -4.0060     2.8400    -0.7410 h1         1 N64       0.060200
     45 H21         -8.8780    -1.0890    -1.1730 ha         1 N64       0.109500
     46 H22         -6.9150    -3.2630     1.9440 ha         1 N64       0.109500
     47 H23          6.1210    -1.0500    -1.6220 ha         1 N64       0.177000
     48 H24         -4.1060     0.0990     2.1270 h1         1 N64       0.041950
     49 H25         -3.1000    -0.6880     0.9170 h1         1 N64       0.041950
     50 C            9.0770    -1.3010    -1.0840 c3         1 N64      -0.137400
@<TRIPOS>BOND
     1     1     3 1   
     2     1     4 1   
     3     1    25 1   
     4     2     8 1   
     5     2    16 1   
     6     2    21 1   
     7     3    12 1   
     8     3    13 2   
     9     4     5 1   
    10     4    26 1   
    11     4    27 1   
    12     5     6 1   
    13     5    28 1   
    14     5    29 1   
    15     6    22 1   
    16     6    30 1   
    17     6    31 1   
    18     7    21 1   
    19     7    22 1   
    20     7    32 1   
    21     7    33 1   
    22     8    15 1   
    23     8    34 1   
    24     8    35 1   
    25     9    16 ar  
    26     9    17 ar  
    27     9    36 1   
    28    10    17 ar  
    29    10    18 ar  
    30    10    37 1   
    31    11    16 ar  
    32    11    18 ar  
    33    11    38 1   
    34    12    20 1   
    35    12    39 1   
    36    14    19 2   
    37    14    24 1   
    38    14    50 1   
    39    15    22 1   
    40    15    43 1   
    41    15    44 1   
    42    17    45 1   
    43    18    46 1   
    44    19    20 1   
    45    19    47 1   
    46    20    23 2   
    47    21    48 1   
    48    21    49 1   
    49    23    24 1   
    50    40    50 1   
    51    41    50 1   
    52    42    50 1   
@<TRIPOS>SUBSTRUCTURE
     1 N64         1 TEMP              0 ****  ****    0 ROOT
