@<TRIPOS>MOLECULE
N64
   50    52     1     0     0
SMALL
No Charge or Current Charge


@<TRIPOS>ATOM
      1 N1           2.4650     0.8460    -0.0470 ns         1 N64      -0.523900
      2 N3          -4.6870     0.2730     0.1220 nh         1 N64      -0.784400
      3 C4           3.6360     0.2460    -0.4240 c          1 N64       0.669100
      4 C5           1.2140     0.7370    -0.7980 c3         1 N64       0.119000
      5 C6           0.0560     1.4540    -0.0820 c3         1 N64      -0.100400
      6 C7          -1.2720     1.3470    -0.8620 c3         1 N64       0.174800
      7 C8          -2.8280     1.7410     1.0770 c6         1 N64       0.162300
      8 C10         -4.3500     0.8100    -1.2390 c6         1 N64       0.161800
      9 C13         -6.9990    -0.4350    -0.2520 ca         1 N64      -0.164000
     10 C15         -7.7950    -2.5830     0.5650 ca         1 N64      -0.145000
     11 C17         -5.4910    -1.9050     0.9530 ca         1 N64      -0.164000
     12 N            4.6540     0.5040     0.4480 ns         1 N64      -0.498400
     13 O            3.7310    -0.4350    -1.4300 o          1 N64      -0.618100
     14 C1           7.8340    -0.8920    -0.2160 cc         1 N64       0.189300
     15 C11         -3.5910     2.1800    -1.1850 c6         1 N64       0.162300
     16 C12         -5.7170    -0.6880     0.2750 ca         1 N64       0.294000
     17 C14         -8.0340    -1.3760    -0.1090 ca         1 N64      -0.080500
     18 C16         -6.5240    -2.8490     1.0970 ca         1 N64      -0.080500
     19 C2           6.5350    -0.7320    -0.5750 cd         1 N64      -0.241000
     20 C3           5.9590     0.0860     0.4140 cd         1 N64       0.424900
     21 C9          -3.5510     0.3530     1.0990 c6         1 N64       0.161800
     22 N2          -2.3870     2.1540    -0.2960 n3         1 N64      -0.723600
     23 N4           6.8210     0.4310     1.3490 nc         1 N64      -0.445300
     24 O1           8.0570    -0.2030     0.9510 os         1 N64      -0.068700
     25 H1           2.4710     1.3970     0.8010 hn         1 N64       0.316500
     26 H2           1.3610     1.1770    -1.7940 h1         1 N64       0.053200
     27 H3           0.9670    -0.3250    -0.9240 h1         1 N64       0.053200
     28 H4          -0.0620     1.0160     0.9160 hc         1 N64       0.052200
     29 H5           0.3110     2.5120     0.0490 hc         1 N64       0.052200
     30 H6          -1.0780     1.6850    -1.8890 h1         1 N64       0.035700
     31 H7          -1.5550     0.2880    -0.9260 h1         1 N64       0.035700
     32 H8          -3.5300     2.4900     1.4740 h1         1 N64       0.060200
     33 H9          -1.9850     1.7190     1.7810 h1         1 N64       0.060200
     34 H10         -3.7280     0.0800    -1.7760 h1         1 N64       0.041950
     35 H11         -5.2610     0.9510    -1.8380 h1         1 N64       0.041950
     36 H12         -7.2000     0.5010    -0.7630 ha         1 N64       0.110500
     37 H13         -8.5950    -3.3130     0.6760 ha         1 N64       0.114000
     38 H14         -4.5120    -2.1330     1.3620 ha         1 N64       0.110500
     39 H15          4.3960     1.0880     1.2280 hn         1 N64       0.331500
     40 H16          9.7820    -0.9760    -1.1170 hc         1 N64       0.062367
     41 H17          9.3460    -2.4180    -0.1780 hc         1 N64       0.062367
     42 H18          8.6220    -2.1460    -1.7760 hc         1 N64       0.062367
     43 H19         -3.3120     2.4740    -2.2080 h1         1 N64       0.060200
     44 H20         -4.2970     2.9440    -0.8270 h1         1 N64       0.060200
     45 H21         -9.0210    -1.1660    -0.5190 ha         1 N64       0.109500
     46 H22         -6.3360    -3.7850     1.6180 ha         1 N64       0.109500
     47 H23          6.0650    -1.1570    -1.4500 ha         1 N64       0.177000
     48 H24         -3.9220     0.1790     2.1200 h1         1 N64       0.041950
     49 H25         -2.8160    -0.4360     0.8820 h1         1 N64       0.041950
     50 C            8.9580    -1.6500    -0.8580 c3         1 N64      -0.137400
@<TRIPOS>BOND
     1     1     3 1   
     2     1     4 1   
     3     1    25 1   
     4     2     8 1   
     5     2    16 1   
     6     2    21 1   
     7     3    12 1   
     8     3    13 2   
     9     4     5 1   
    10     4    26 1   
    11     4    27 1   
    12     5     6 1   
    13     5    28 1   
    14     5    29 1   
    15     6    22 1   
    16     6    30 1   
    17     6    31 1   
    18     7    21 1   
    19     7    22 1   
    20     7    32 1   
    21     7    33 1   
    22     8    15 1   
    23     8    34 1   
    24     8    35 1   
    25     9    16 ar  
    26     9    17 ar  
    27     9    36 1   
    28    10    17 ar  
    29    10    18 ar  
    30    10    37 1   
    31    11    16 ar  
    32    11    18 ar  
    33    11    38 1   
    34    12    20 1   
    35    12    39 1   
    36    14    19 2   
    37    14    24 1   
    38    14    50 1   
    39    15    22 1   
    40    15    43 1   
    41    15    44 1   
    42    17    45 1   
    43    18    46 1   
    44    19    20 1   
    45    19    47 1   
    46    20    23 2   
    47    21    48 1   
    48    21    49 1   
    49    23    24 1   
    50    40    50 1   
    51    41    50 1   
    52    42    50 1   
@<TRIPOS>SUBSTRUCTURE
     1 N64         1 TEMP              0 ****  ****    0 ROOT
