@<TRIPOS>MOLECULE
N66
   81    86     1     0     0
SMALL
bcc


@<TRIPOS>ATOM
      1 CBK         -8.6300    -1.5340    -0.9690 c6         1 N66       0.159800
      2 CBL        -10.1000    -1.7720    -0.6400 c6         1 N66       0.157800
      3 NBM        -10.9680    -0.6550    -0.9580 n3         1 N66      -0.711600
      4 CBP        -11.2060    -0.4850    -2.3780 c3         1 N66       0.150100
      5 CBN        -10.4570     0.5360    -0.3060 c6         1 N66       0.157800
      6 CBO         -8.9960     0.8320    -0.6220 c6         1 N66       0.159800
      7 NBJ         -8.1580    -0.3250    -0.3170 nh         1 N66      -0.643000
      8 CAV         -6.7800    -0.1170    -0.2690 ca         1 N66       0.183600
      9 CAW         -6.2640     0.9750     0.4490 ca         1 N66      -0.246000
     10 CAX         -4.9000     1.1920     0.5490 ca         1 N66       0.143100
     11 OBH         -4.3490     2.2170     1.2280 os         1 N66      -0.325900
     12 CBI         -5.1990     3.1720     1.8300 c3         1 N66       0.126700
     13 CAU         -5.8690    -0.9770    -0.8860 ca         1 N66      -0.212000
     14 CAT         -4.5020    -0.7480    -0.7910 ca         1 N66      -0.062000
     15 CAS         -3.9910     0.3220    -0.0780 ca         1 N66       0.093600
     16 NAR         -2.6200     0.6060     0.0030 nu         1 N66      -0.725300
     17 C2          -1.6090    -0.2660     0.2230 ca         1 N66       0.937900
     18 N3          -0.3820     0.2680     0.1930 nb         1 N66      -0.803000
     19 C4           0.6170    -0.5560     0.4060 ca         1 N66       0.590800
     20 N1          -1.8830    -1.5500     0.4410 nb         1 N66      -0.764000
     21 C6          -0.8440    -2.3460     0.6600 ca         1 N66       0.496200
     22 C5           0.4690    -1.9190     0.6640 ca         1 N66      -0.394900
     23 CAG          1.6680    -2.7660     0.9520 c6         1 N66      -0.009100
     24 CAH          2.8670    -2.2990     0.1290 c6         1 N66      -0.020100
     25 CAI          3.0230    -0.8190     0.2200 cc         1 N66      -0.016600
     26 NAJ          1.9070    -0.0340     0.3560 na         1 N66      -0.100900
     27 CAK          2.2560     1.2980     0.3680 cc         1 N66      -0.115300
     28 CAM          3.6060     1.3680     0.2540 cd         1 N66      -0.182000
     29 CAL          4.1040     0.0280     0.1510 cd         1 N66      -0.222600
     30 CAN          5.4920    -0.4030    -0.0650 c          1 N66       0.715700
     31 OAO          5.7810    -1.5240    -0.4620 o          1 N66      -0.607100
     32 NAP          6.4350     0.5370     0.1830 ns         1 N66      -0.499100
     33 CAQ          7.8130     0.3370    -0.0910 ca         1 N66       0.055600
     34 CAY          8.6830     0.0150     0.9530 ca         1 N66      -0.066300
     35 CBD          8.1990    -0.2010     2.3610 c3         1 N66      -0.028600
     36 CBE          7.8500    -1.6640     2.6310 c3         1 N66      -0.085600
     37 CAZ         10.0360    -0.1510     0.6610 ca         1 N66      -0.127500
     38 CBA         10.5060    -0.0120    -0.6330 ca         1 N66      -0.124000
     39 CBB          9.6270     0.3050    -1.6580 ca         1 N66      -0.127500
     40 CBC          8.2720     0.4910    -1.4040 ca         1 N66      -0.066300
     41 CBF          7.3530     0.9050    -2.5220 c3         1 N66      -0.028600
     42 CBG          7.0850     2.4090    -2.5250 c3         1 N66      -0.085600
     43 H1          -8.0620    -2.3900    -0.6010 h1         1 N66       0.041700
     44 H2          -8.4830    -1.4940    -2.0590 h1         1 N66       0.041700
     45 H3         -10.4450    -2.6630    -1.1690 h1         1 N66       0.060950
     46 H4         -10.1870    -1.9770     0.4310 h1         1 N66       0.060950
     47 H6         -11.6080    -1.4110    -2.7920 h1         1 N66       0.031367
     48 H7         -11.9530     0.2960    -2.5320 h1         1 N66       0.031367
     49 H8         -10.3250    -0.2150    -2.9760 h1         1 N66       0.031367
     50 H9         -11.0660     1.3980    -0.5880 h1         1 N66       0.060950
     51 H10        -10.5620     0.4060     0.7760 h1         1 N66       0.060950
     52 H11         -8.8810     1.1220    -1.6770 h1         1 N66       0.041700
     53 H12         -8.6890     1.6900    -0.0270 h1         1 N66       0.041700
     54 H13         -6.9440     1.6360     0.9670 ha         1 N66       0.139000
     55 H14         -4.5510     3.9170     2.2850 h1         1 N66       0.042033
     56 H15         -5.8430     3.6640     1.0970 h1         1 N66       0.042033
     57 H16         -5.8250     2.7290     2.6080 h1         1 N66       0.042033
     58 H17         -6.2010    -1.8230    -1.4690 ha         1 N66       0.136000
     59 H18         -3.8270    -1.4190    -1.3020 ha         1 N66       0.149000
     60 H19         -2.3400     1.5730    -0.0610 hn         1 N66       0.465800
     61 H20         -1.0710    -3.3910     0.8470 h4         1 N66       0.025100
     62 H21          1.9140    -2.7050     2.0170 hc         1 N66       0.056700
     63 H22          1.4560    -3.8140     0.7380 hc         1 N66       0.056700
     64 H23          3.7780    -2.7890     0.4640 hc         1 N66       0.079700
     65 H24          2.7270    -2.5810    -0.9200 hc         1 N66       0.079700
     66 H25          1.5100     2.0690     0.4610 h4         1 N66       0.186000
     67 H26          4.1760     2.2840     0.2280 ha         1 N66       0.151000
     68 H27          6.1570     1.4100     0.6030 hn         1 N66       0.323500
     69 H28          8.9810     0.1130     3.0550 hc         1 N66       0.046950
     70 H29          7.3300     0.4230     2.5740 hc         1 N66       0.046950
     71 H30          8.7180    -2.3070     2.4850 hc         1 N66       0.034867
     72 H31          7.5060    -1.7950     3.6570 hc         1 N66       0.034867
     73 H32          7.0610    -2.0150     1.9660 hc         1 N66       0.034867
     74 H33         10.7240    -0.3930     1.4630 ha         1 N66       0.130000
     75 H34         11.5600    -0.1460    -0.8440 ha         1 N66       0.130000
     76 H35          9.9980     0.4190    -2.6700 ha         1 N66       0.130000
     77 H36          7.8080     0.6230    -3.4730 hc         1 N66       0.046950
     78 H37          6.4080     0.3640    -2.4700 hc         1 N66       0.046950
     79 H38          6.6170     2.7360    -1.5960 hc         1 N66       0.034867
     80 H39          8.0120     2.9710    -2.6460 hc         1 N66       0.034867
     81 H40          6.4180     2.6810    -3.3440 hc         1 N66       0.034867
@<TRIPOS>BOND
     1     1     2 1   
     2     1     7 1   
     3     1    43 1   
     4     1    44 1   
     5     2     3 1   
     6     2    45 1   
     7     2    46 1   
     8     3     4 1   
     9     3     5 1   
    10     4    47 1   
    11     4    48 1   
    12     4    49 1   
    13     5     6 1   
    14     5    50 1   
    15     5    51 1   
    16     6     7 1   
    17     6    52 1   
    18     6    53 1   
    19     7     8 1   
    20     8     9 ar  
    21     8    13 ar  
    22     9    10 ar  
    23     9    54 1   
    24    10    11 1   
    25    10    15 ar  
    26    11    12 1   
    27    12    55 1   
    28    12    56 1   
    29    12    57 1   
    30    13    14 ar  
    31    13    58 1   
    32    14    15 ar  
    33    14    59 1   
    34    15    16 1   
    35    16    17 1   
    36    16    60 1   
    37    17    18 ar  
    38    17    20 ar  
    39    18    19 ar  
    40    19    22 ar  
    41    19    26 1   
    42    20    21 ar  
    43    21    22 ar  
    44    21    61 1   
    45    22    23 1   
    46    23    24 1   
    47    23    62 1   
    48    23    63 1   
    49    24    25 1   
    50    24    64 1   
    51    24    65 1   
    52    25    26 1   
    53    25    29 2   
    54    26    27 1   
    55    27    28 2   
    56    27    66 1   
    57    28    29 1   
    58    28    67 1   
    59    29    30 1   
    60    30    31 2   
    61    30    32 1   
    62    32    33 1   
    63    32    68 1   
    64    33    34 ar  
    65    33    40 ar  
    66    34    35 1   
    67    34    37 ar  
    68    35    36 1   
    69    35    69 1   
    70    35    70 1   
    71    36    71 1   
    72    36    72 1   
    73    36    73 1   
    74    37    38 ar  
    75    37    74 1   
    76    38    39 ar  
    77    38    75 1   
    78    39    40 ar  
    79    39    76 1   
    80    40    41 1   
    81    41    42 1   
    82    41    77 1   
    83    41    78 1   
    84    42    79 1   
    85    42    80 1   
    86    42    81 1   
@<TRIPOS>SUBSTRUCTURE
     1 N66         1 TEMP              0 ****  ****    0 ROOT
