@<TRIPOS>MOLECULE
N66
   81    86     1     0     0
SMALL
No Charge or Current Charge


@<TRIPOS>ATOM
      1 CBK         -9.0130    -1.4190    -0.5080 c6         1 N66       0.159800
      2 CBL        -10.5230    -1.3330    -0.1000 c6         1 N66       0.157800
      3 NBM        -11.2560    -0.2230    -0.7860 n3         1 N66      -0.711600
      4 CBP        -11.4850    -0.4730    -2.2290 c3         1 N66       0.150100
      5 CBN        -10.5530     1.0700    -0.5110 c6         1 N66       0.157800
      6 CBO         -9.0440     1.0540    -0.9290 c6         1 N66       0.159800
      7 NBJ         -8.2960    -0.1110    -0.3510 nh         1 N66      -0.781400
      8 CAV         -6.8900    -0.0580    -0.2310 ca         1 N66       0.322000
      9 CAW         -6.2930     0.9960     0.4770 ca         1 N66      -0.228000
     10 CAX         -4.8880     1.0710     0.6120 ca         1 N66       0.143100
     11 OBH         -4.2790     2.1110     1.3010 os         1 N66      -0.349100
     12 CBI         -5.0270     3.1740     1.9180 c3         1 N66       0.149900
     13 CAU         -6.0710    -1.0410    -0.8120 ca         1 N66      -0.194000
     14 CAT         -4.6720    -0.9790    -0.6850 ca         1 N66      -0.044000
     15 CAS         -4.0610     0.0670     0.0380 ca         1 N66       0.232000
     16 NAR         -2.6600     0.1740     0.1820 nu         1 N66      -0.918900
     17 C2          -1.5820    -0.6960     0.1020 ca         1 N66       0.411900
     18 N3          -0.3870    -0.1020     0.2300 nb         1 N66      -0.277000
     19 C4           0.7190    -0.8790     0.1740 ca         1 N66       0.262500
     20 N1          -1.8110    -2.0070    -0.0690 nb         1 N66      -0.238000
     21 C6          -0.7280    -2.7990    -0.1270 ca         1 N66       0.167900
     22 C5           0.5730    -2.2790    -0.0160 ca         1 N66      -0.264300
     23 CAG          1.7880    -3.2220    -0.0540 c6         1 N66      -0.009100
     24 CAH          3.0650    -2.5390    -0.6010 c6         1 N66      -0.020100
     25 CAI          3.1350    -1.1240    -0.0800 cc         1 N66      -0.067300
     26 NAJ          2.0230    -0.3770     0.2800 na         1 N66       0.000500
     27 CAK          2.3420     0.9030     0.7160 cc         1 N66      -0.148000
     28 CAM          3.7090     0.9530     0.6200 cd         1 N66      -0.164000
     29 CAL          4.2160    -0.2880     0.1220 cd         1 N66      -0.222600
     30 CAN          5.6440    -0.6380    -0.1530 c          1 N66       0.648700
     31 OAO          6.0240    -1.7150    -0.6010 o          1 N66      -0.607100
     32 NAP          6.5110     0.3920     0.1620 ns         1 N66      -0.173000
     33 CAQ          7.9190     0.4610     0.0130 ca         1 N66      -0.037000
     34 CAY          8.7340     0.4820     1.1730 ca         1 N66      -0.066300
     35 CBD          8.1330     0.4160     2.5790 c3         1 N66      -0.028600
     36 CBE          7.8230    -1.0270     3.0190 c3         1 N66      -0.085600
     37 CAZ         10.1330     0.5480     1.0370 ca         1 N66      -0.109500
     38 CBA         10.7220     0.6090    -0.2340 ca         1 N66      -0.106000
     39 CBB          9.9170     0.6120    -1.3810 ca         1 N66      -0.109500
     40 CBC          8.5140     0.5410    -1.2740 ca         1 N66      -0.066300
     41 CBF          7.6820     0.6000    -2.5600 c3         1 N66      -0.028600
     42 CBG          7.0160     1.9730    -2.7740 c3         1 N66      -0.085600
     43 H1          -8.5340    -2.1880     0.1160 h1         1 N66       0.041700
     44 H2          -8.9440    -1.7580    -1.5520 h1         1 N66       0.041700
     45 H3         -11.0040    -2.3000    -0.3040 h1         1 N66       0.060950
     46 H4         -10.5700    -1.1870     0.9900 h1         1 N66       0.060950
     47 H6         -12.0470    -1.4050    -2.3740 h1         1 N66       0.031367
     48 H7         -12.0690     0.3440    -2.6730 h1         1 N66       0.031367
     49 H8         -10.5390    -0.5550    -2.7800 h1         1 N66       0.031367
     50 H9         -11.0580     1.9020    -1.0240 h1         1 N66       0.060950
     51 H10        -10.6030     1.2940     0.5650 h1         1 N66       0.060950
     52 H11         -8.9780     1.0240    -2.0260 h1         1 N66       0.041700
     53 H12         -8.5930     2.0030    -0.6100 h1         1 N66       0.041700
     54 H13         -6.9350     1.7430     0.9280 ha         1 N66       0.121000
     55 H14         -4.3480     3.8860     2.4020 h1         1 N66       0.042033
     56 H15         -5.6160     3.7220     1.1700 h1         1 N66       0.042033
     57 H16         -5.7080     2.7800     2.6830 h1         1 N66       0.042033
     58 H17         -6.5100    -1.8540    -1.3830 ha         1 N66       0.118000
     59 H18         -4.0730    -1.7390    -1.1730 ha         1 N66       0.131000
     60 H19         -2.3810     1.0890     0.5380 hn         1 N66       0.521000
     61 H20         -0.9080    -3.8650    -0.2600 h4         1 N66       0.025100
     62 H21          1.9840    -3.5770     0.9670 hc         1 N66       0.056700
     63 H22          1.5650    -4.1180    -0.6500 hc         1 N66       0.056700
     64 H23          3.9390    -3.1350    -0.3110 hc         1 N66       0.079700
     65 H24          3.0370    -2.5330    -1.6990 hc         1 N66       0.079700
     66 H25          1.6100     1.6340     1.0390 h4         1 N66       0.168000
     67 H26          4.3020     1.8250     0.8790 ha         1 N66       0.133000
     68 H27          6.0800     1.2100     0.5690 hn         1 N66       0.157000
     69 H28          8.8250     0.8600     3.3050 hc         1 N66       0.046950
     70 H29          7.2180     1.0170     2.6410 hc         1 N66       0.046950
     71 H30          8.7350    -1.6360     3.0120 hc         1 N66       0.034867
     72 H31          7.4100    -1.0370     4.0350 hc         1 N66       0.034867
     73 H32          7.0920    -1.4930     2.3480 hc         1 N66       0.034867
     74 H33         10.7690     0.5520     1.9200 ha         1 N66       0.112000
     75 H34         11.8050     0.6630    -0.3290 ha         1 N66       0.112000
     76 H35         10.3880     0.6780    -2.3590 ha         1 N66       0.112000
     77 H36          8.3150     0.3870    -3.4300 hc         1 N66       0.046950
     78 H37          6.9120    -0.1780    -2.5680 hc         1 N66       0.046950
     79 H38          6.3160     2.2030    -1.9630 hc         1 N66       0.034867
     80 H39          7.7730     2.7660    -2.8120 hc         1 N66       0.034867
     81 H40          6.4590     1.9840    -3.7190 hc         1 N66       0.034867
@<TRIPOS>BOND
     1     1     2 1   
     2     1     7 1   
     3     1    43 1   
     4     1    44 1   
     5     2     3 1   
     6     2    45 1   
     7     2    46 1   
     8     3     4 1   
     9     3     5 1   
    10     4    47 1   
    11     4    48 1   
    12     4    49 1   
    13     5     6 1   
    14     5    50 1   
    15     5    51 1   
    16     6     7 1   
    17     6    52 1   
    18     6    53 1   
    19     7     8 1   
    20     8     9 ar  
    21     8    13 ar  
    22     9    10 ar  
    23     9    54 1   
    24    10    11 1   
    25    10    15 ar  
    26    11    12 1   
    27    12    55 1   
    28    12    56 1   
    29    12    57 1   
    30    13    14 ar  
    31    13    58 1   
    32    14    15 ar  
    33    14    59 1   
    34    15    16 1   
    35    16    17 1   
    36    16    60 1   
    37    17    18 ar  
    38    17    20 ar  
    39    18    19 ar  
    40    19    22 ar  
    41    19    26 1   
    42    20    21 ar  
    43    21    22 ar  
    44    21    61 1   
    45    22    23 1   
    46    23    24 1   
    47    23    62 1   
    48    23    63 1   
    49    24    25 1   
    50    24    64 1   
    51    24    65 1   
    52    25    26 1   
    53    25    29 2   
    54    26    27 1   
    55    27    28 2   
    56    27    66 1   
    57    28    29 1   
    58    28    67 1   
    59    29    30 1   
    60    30    31 2   
    61    30    32 1   
    62    32    33 1   
    63    32    68 1   
    64    33    34 ar  
    65    33    40 ar  
    66    34    35 1   
    67    34    37 ar  
    68    35    36 1   
    69    35    69 1   
    70    35    70 1   
    71    36    71 1   
    72    36    72 1   
    73    36    73 1   
    74    37    38 ar  
    75    37    74 1   
    76    38    39 ar  
    77    38    75 1   
    78    39    40 ar  
    79    39    76 1   
    80    40    41 1   
    81    41    42 1   
    82    41    77 1   
    83    41    78 1   
    84    42    79 1   
    85    42    80 1   
    86    42    81 1   
@<TRIPOS>SUBSTRUCTURE
     1 N66         1 TEMP              0 ****  ****    0 ROOT
