@<TRIPOS>MOLECULE
N67
   35    36     1     0     0
SMALL
bcc


@<TRIPOS>ATOM
      1 N1          -1.3580    -0.0920     2.6820 ns         1 N67      -0.582900
      2 N3          -5.2670     0.9720     0.5530 nc         1 N67      -0.438300
      3 C4           1.0150    -0.3180     2.0370 cc         1 N67      -0.094400
      4 C5          -0.1110    -0.7790     2.9140 c3         1 N67       0.182300
      5 C6          -2.1280    -0.4130     1.6200 c          1 N67       0.798100
      6 C7          -4.1890     0.2370     0.4860 cd         1 N67       0.486200
      7 C8          -4.1730    -0.5590    -0.6910 cd         1 N67      -0.389600
      8 N            4.1750    -0.9640    -1.6630 n7         1 N67      -0.806100
      9 C            3.5070    -2.2560    -1.7460 c3         1 N67       0.179100
     10 O            2.2000     0.3730    -2.3670 o          1 N67      -0.603800
     11 C1           2.5190     0.2220     0.1760 cc         1 N67      -0.355600
     12 C2           3.0490     0.5920     1.3760 cd         1 N67      -0.019000
     13 C3           2.1750     0.2800     2.4440 cd         1 N67      -0.172000
     14 C9          -5.3330    -0.2250    -1.3050 cc         1 N67       0.303000
     15 N2          -3.2680     0.3430     1.5000 ns         1 N67      -0.556400
     16 O1           4.2140     1.4890    -1.3210 o          1 N67      -0.603800
     17 O2          -1.8340    -1.3080     0.8420 o          1 N67      -0.622100
     18 O3          -5.9840     0.6810    -0.5750 os         1 N67      -0.110100
     19 S            3.2770     0.3820    -1.3920 sy         1 N67       1.329200
     20 S1           0.9700    -0.5060     0.3270 ss         1 N67       0.128200
     21 H1          -1.5280     0.7550     3.2000 hn         1 N67       0.321500
     22 H2           0.1760    -0.6030     3.9490 h1         1 N67       0.071700
     23 H3          -0.2610    -1.8530     2.8070 h1         1 N67       0.071700
     24 H4          -3.4300    -1.2560    -1.0280 ha         1 N67       0.195000
     25 H5          -6.9120    -1.1620    -2.3890 hc         1 N67       0.063700
     26 H6          -6.1310     0.1650    -3.2450 hc         1 N67       0.063700
     27 H7          -5.2990    -1.3830    -3.0710 hc         1 N67       0.063700
     28 H8           5.0160    -0.9710    -1.0960 hn         1 N67       0.423800
     29 H9           4.2500    -2.9890    -2.0490 h1         1 N67       0.052700
     30 H10          3.0710    -2.5780    -0.7980 h1         1 N67       0.052700
     31 H11          2.7320    -2.2280    -2.5060 h1         1 N67       0.052700
     32 H12          4.0080     1.0750     1.4960 ha         1 N67       0.166000
     33 H13          2.3920     0.4940     3.4810 ha         1 N67       0.152000
     34 H14         -3.4820     1.0210     2.2170 hn         1 N67       0.335500
     35 C10         -5.9540    -0.6740    -2.5710 c3         1 N67      -0.137400
@<TRIPOS>BOND
     1     1     4 1   
     2     1     5 1   
     3     1    21 1   
     4     2     6 2   
     5     2    18 1   
     6     3     4 1   
     7     3    13 2   
     8     3    20 1   
     9     4    22 1   
    10     4    23 1   
    11     5    15 1   
    12     5    17 2   
    13     6     7 1   
    14     6    15 1   
    15     7    14 2   
    16     7    24 1   
    17     8     9 1   
    18     8    19 1   
    19     8    28 1   
    20     9    29 1   
    21     9    30 1   
    22     9    31 1   
    23    10    19 2   
    24    11    12 2   
    25    11    19 1   
    26    11    20 1   
    27    12    13 1   
    28    12    32 1   
    29    13    33 1   
    30    14    18 1   
    31    14    35 1   
    32    15    34 1   
    33    16    19 2   
    34    25    35 1   
    35    26    35 1   
    36    27    35 1   
@<TRIPOS>SUBSTRUCTURE
     1 N67         1 TEMP              0 ****  ****    0 ROOT
