@<TRIPOS>MOLECULE
N67
   35    36     1     0     0
SMALL
No Charge or Current Charge


@<TRIPOS>ATOM
      1 N1          -1.4630    -0.1830     2.3850 ns         1 N67      -0.515900
      2 N3          -5.4070     1.5290     0.7670 nc         1 N67      -0.438300
      3 C4           0.8740    -0.5330     1.7520 cc         1 N67      -0.239300
      4 C5          -0.2710    -0.9970     2.6050 c3         1 N67       0.182300
      5 C6          -2.4200    -0.4580     1.4470 c          1 N67       0.664100
      6 C7          -4.5350     0.5490     0.6450 cd         1 N67       0.420900
      7 C8          -4.8930    -0.3680    -0.3610 cd         1 N67      -0.241000
      8 N            4.9110    -1.0040    -0.9190 n7         1 N67      -0.861300
      9 C            5.6680    -1.9230    -1.7890 c3         1 N67       0.179100
     10 O            2.9050    -1.2800    -2.4290 o          1 N67      -0.533000
     11 C1           2.5680    -0.2180    -0.0570 cc         1 N67      -0.500500
     12 C2           2.7400     0.6510     0.9920 cd         1 N67      -0.001000
     13 C3           1.7780     0.4680     2.0200 cd         1 N67      -0.154000
     14 C9          -6.0600     0.0870    -0.8830 cc         1 N67       0.193300
     15 N2          -3.4180     0.4760     1.4350 ns         1 N67      -0.489400
     16 O1           3.8960     1.0500    -1.9310 o          1 N67      -0.533000
     17 O2          -2.3680    -1.4310     0.7170 o          1 N67      -0.622100
     18 O3          -6.4140     1.2410    -0.2280 os         1 N67      -0.065700
     19 S            3.5280    -0.3090    -1.5280 sy         1 N67       1.187600
     20 S1           1.1920    -1.2750     0.1830 ss         1 N67       0.418000
     21 H1          -1.5770     0.6520     2.9440 hn         1 N67       0.321500
     22 H2           0.0130    -0.9270     3.6630 h1         1 N67       0.071700
     23 H3          -0.4950    -2.0510     2.3920 h1         1 N67       0.071700
     24 H4          -4.3660    -1.2580    -0.6740 ha         1 N67       0.177000
     25 H5          -7.9410    -0.6660    -1.5970 hc         1 N67       0.063700
     26 H6          -7.0300     0.2830    -2.7900 hc         1 N67       0.063700
     27 H7          -6.5220    -1.3710    -2.3950 hc         1 N67       0.063700
     28 H8           4.5390    -1.4990    -0.1110 hn         1 N67       0.479000
     29 H9           6.5500    -2.3120    -1.2650 h1         1 N67       0.052700
     30 H10          5.0560    -2.7830    -2.0970 h1         1 N67       0.052700
     31 H11          6.0160    -1.4090    -2.6950 h1         1 N67       0.052700
     32 H12          3.5280     1.4000     1.0350 ha         1 N67       0.148000
     33 H13          1.7610     1.0630     2.9280 ha         1 N67       0.134000
     34 H14         -3.3030     1.2160     2.1090 hn         1 N67       0.335500
     35 C10         -6.9360    -0.4470    -1.9770 c3         1 N67      -0.137400
@<TRIPOS>BOND
     1     1     4 1   
     2     1     5 1   
     3     1    21 1   
     4     2     6 2   
     5     2    18 1   
     6     3     4 1   
     7     3    13 2   
     8     3    20 1   
     9     4    22 1   
    10     4    23 1   
    11     5    15 1   
    12     5    17 2   
    13     6     7 1   
    14     6    15 1   
    15     7    14 2   
    16     7    24 1   
    17     8     9 1   
    18     8    19 1   
    19     8    28 1   
    20     9    29 1   
    21     9    30 1   
    22     9    31 1   
    23    10    19 2   
    24    11    12 2   
    25    11    19 1   
    26    11    20 1   
    27    12    13 1   
    28    12    32 1   
    29    13    33 1   
    30    14    18 1   
    31    14    35 1   
    32    15    34 1   
    33    16    19 2   
    34    25    35 1   
    35    26    35 1   
    36    27    35 1   
@<TRIPOS>SUBSTRUCTURE
     1 N67         1 TEMP              0 ****  ****    0 ROOT
