@<TRIPOS>MOLECULE
N69
   44    46     1     0     0
SMALL
No Charge or Current Charge


@<TRIPOS>ATOM
      1 N2          -1.1510    -4.3790    -0.4980 nv         1 N69      -1.082900
      2 C2          -1.2540    -3.0450    -0.3370 ca         1 N69       0.445900
      3 N1          -0.0970    -2.3950    -0.1530 nb         1 N69      -0.366000
      4 N3          -2.4950    -2.5350    -0.3840 nb         1 N69      -0.290000
      5 C4          -2.5630    -1.2050    -0.2230 ca         1 N69       0.161500
      6 N9          -3.6120    -0.3440    -0.2090 na         1 N69      -0.417300
      7 C8          -3.1230     0.9420    -0.0030 cc         1 N69       0.391800
      8 C17         -3.9870     2.1790     0.0750 c3         1 N69      -0.077000
      9 C19         -4.7330     2.4470    -1.2530 c3         1 N69      -0.089600
     10 C18         -4.9620     2.1280     1.2740 c3         1 N69      -0.089600
     11 C5          -1.4530    -0.4240    -0.0250 ca         1 N69      -0.103600
     12 N7          -1.7850     0.9300     0.1150 nd         1 N69      -0.515100
     13 C6          -0.1860    -1.0540     0.0080 ca         1 N69       0.461300
     14 O6           0.9450    -0.2870     0.2050 os         1 N69      -0.434300
     15 C10          2.2530    -0.8880     0.2360 c3         1 N69       0.171600
     16 C11          3.3230     0.2190     0.4600 c6         1 N69      -0.067700
     17 C12          4.7350    -0.4020     0.6560 c6         1 N69      -0.070900
     18 C13          5.8100     0.6880     0.8900 c6         1 N69      -0.072900
     19 C14          5.8230     1.7190    -0.2640 c6         1 N69      -0.075400
     20 C15          4.4230     2.3470    -0.4650 c6         1 N69      -0.072900
     21 C16          3.3460     1.2590    -0.6990 c6         1 N69      -0.070900
     22 H2N1        -1.9520    -4.8740    -0.8810 hn         1 N69       0.505000
     23 H2N2        -0.2340    -4.7650    -0.7110 hn         1 N69       0.505000
     24 H9          -4.5850    -0.5910    -0.3270 hn         1 N69       0.365000
     25 H17         -3.3220     3.0350     0.2430 hc         1 N69       0.083700
     26 H191        -4.0220     2.5190    -2.0860 hc         1 N69       0.039367
     27 H192        -5.4410     1.6400    -1.4760 hc         1 N69       0.039367
     28 H193        -5.2920     3.3890    -1.2010 hc         1 N69       0.039367
     29 H181        -5.6800     1.3070     1.1620 hc         1 N69       0.039367
     30 H182        -4.4110     1.9770     2.2110 hc         1 N69       0.039367
     31 H183        -5.5230     3.0670     1.3580 hc         1 N69       0.039367
     32 H101         2.3190    -1.6180     1.0550 h1         1 N69       0.050700
     33 H102         2.4670    -1.4090    -0.7070 h1         1 N69       0.050700
     34 H11          3.0410     0.7340     1.3900 hc         1 N69       0.062700
     35 H121         4.7250    -1.0950     1.5090 hc         1 N69       0.043200
     36 H122         5.0050    -1.0000    -0.2260 hc         1 N69       0.043200
     37 H131         5.6150     1.2010     1.8430 hc         1 N69       0.039700
     38 H132         6.8000     0.2210     0.9840 hc         1 N69       0.039700
     39 H141         6.5590     2.5070    -0.0530 hc         1 N69       0.037700
     40 H142         6.1470     1.2300    -1.1940 hc         1 N69       0.037700
     41 H151         4.1560     2.9480     0.4160 hc         1 N69       0.039700
     42 H152         4.4440     3.0390    -1.3190 hc         1 N69       0.039700
     43 H161         3.5400     0.7490    -1.6530 hc         1 N69       0.043200
     44 H162         2.3630     1.7390    -0.7990 hc         1 N69       0.043200
@<TRIPOS>BOND
     1     1     2 1   
     2     1    22 1   
     3     1    23 1   
     4     2     3 ar  
     5     2     4 ar  
     6     3    13 ar  
     7     4     5 ar  
     8     5     6 1   
     9     5    11 ar  
    10     6     7 1   
    11     6    24 1   
    12     7     8 1   
    13     7    12 2   
    14     8     9 1   
    15     8    10 1   
    16     8    25 1   
    17     9    26 1   
    18     9    27 1   
    19     9    28 1   
    20    10    29 1   
    21    10    30 1   
    22    10    31 1   
    23    11    12 1   
    24    11    13 ar  
    25    13    14 1   
    26    14    15 1   
    27    15    16 1   
    28    15    32 1   
    29    15    33 1   
    30    16    17 1   
    31    16    21 1   
    32    16    34 1   
    33    17    18 1   
    34    17    35 1   
    35    17    36 1   
    36    18    19 1   
    37    18    37 1   
    38    18    38 1   
    39    19    20 1   
    40    19    39 1   
    41    19    40 1   
    42    20    21 1   
    43    20    41 1   
    44    20    42 1   
    45    21    43 1   
    46    21    44 1   
@<TRIPOS>SUBSTRUCTURE
     1 N69         1 TEMP              0 ****  ****    0 ROOT
