@<TRIPOS>MOLECULE
N69
   44    46     1     0     0
SMALL
bcc


@<TRIPOS>ATOM
      1 N2          -0.9720    -4.1880    -0.6500 nv         1 N69      -0.972500
      2 C2          -1.1470    -2.8780    -0.4020 ca         1 N69       0.971900
      3 N1          -0.0330    -2.1830    -0.0940 nb         1 N69      -0.892000
      4 N3          -2.3850    -2.3940    -0.4820 nb         1 N69      -0.816000
      5 C4          -2.4400    -1.0960    -0.2170 ca         1 N69       0.489800
      6 N9          -3.5270    -0.2810    -0.2100 na         1 N69      -0.367000
      7 C8          -3.0950     0.9820     0.1190 cc         1 N69       0.391800
      8 C17         -4.0300     2.1440     0.1950 c3         1 N69      -0.077000
      9 C19         -4.5010     2.5570    -1.2010 c3         1 N69      -0.089600
     10 C18         -5.2140     1.8610     1.1200 c3         1 N69      -0.089600
     11 C5          -1.3760    -0.2630     0.1140 ca         1 N69      -0.234200
     12 N7          -1.8110     1.0260     0.3200 nd         1 N69      -0.515100
     13 C6          -0.1300    -0.8960     0.1570 ca         1 N69       0.789600
     14 O6           0.9410    -0.1810     0.4470 os         1 N69      -0.411100
     15 C10          2.2240    -0.8140     0.4460 c3         1 N69       0.148400
     16 C11          3.2920     0.2570     0.5450 c6         1 N69      -0.067700
     17 C12          4.6610    -0.4170     0.6560 c6         1 N69      -0.070900
     18 C13          5.7910     0.6050     0.7290 c6         1 N69      -0.072900
     19 C14          5.7550     1.5650    -0.4540 c6         1 N69      -0.075400
     20 C15          4.3940     2.2420    -0.5690 c6         1 N69      -0.072900
     21 C16          3.2630     1.2210    -0.6420 c6         1 N69      -0.070900
     22 H2N1        -1.7550    -4.7720    -0.8820 hn         1 N69       0.449800
     23 H2N2        -0.0570    -4.5970    -0.6060 hn         1 N69       0.449800
     24 H9          -4.4740    -0.5630    -0.4080 hn         1 N69       0.314700
     25 H17         -3.4480     2.9650     0.6180 hc         1 N69       0.083700
     26 H191        -3.6590     2.7930    -1.8520 hc         1 N69       0.039367
     27 H192        -5.0860     1.7680    -1.6780 hc         1 N69       0.039367
     28 H193        -5.1330     3.4440    -1.1390 hc         1 N69       0.039367
     29 H181        -5.8500     1.0630     0.7330 hc         1 N69       0.039367
     30 H182        -4.8840     1.5780     2.1190 hc         1 N69       0.039367
     31 H183        -5.8350     2.7530     1.2110 hc         1 N69       0.039367
     32 H101         2.2900    -1.5060     1.2900 h1         1 N69       0.050700
     33 H102         2.3520    -1.3970    -0.4700 h1         1 N69       0.050700
     34 H11          3.1260     0.8310     1.4660 hc         1 N69       0.062700
     35 H121         4.6870    -1.0660     1.5360 hc         1 N69       0.043200
     36 H122         4.8140    -1.0670    -0.2130 hc         1 N69       0.043200
     37 H131         5.7000     1.1760     1.6600 hc         1 N69       0.039700
     38 H132         6.7540     0.0910     0.7750 hc         1 N69       0.039700
     39 H141         6.5440     2.3150    -0.3550 hc         1 N69       0.037700
     40 H142         5.9660     1.0150    -1.3770 hc         1 N69       0.037700
     41 H151         4.2410     2.8930     0.2980 hc         1 N69       0.039700
     42 H152         4.3650     2.8900    -1.4480 hc         1 N69       0.039700
     43 H161         3.3550     0.6410    -1.5690 hc         1 N69       0.043200
     44 H162         2.3020     1.7360    -0.6920 hc         1 N69       0.043200
@<TRIPOS>BOND
     1     1     2 1   
     2     1    22 1   
     3     1    23 1   
     4     2     3 ar  
     5     2     4 ar  
     6     3    13 ar  
     7     4     5 ar  
     8     5     6 1   
     9     5    11 ar  
    10     6     7 1   
    11     6    24 1   
    12     7     8 1   
    13     7    12 2   
    14     8     9 1   
    15     8    10 1   
    16     8    25 1   
    17     9    26 1   
    18     9    27 1   
    19     9    28 1   
    20    10    29 1   
    21    10    30 1   
    22    10    31 1   
    23    11    12 1   
    24    11    13 ar  
    25    13    14 1   
    26    14    15 1   
    27    15    16 1   
    28    15    32 1   
    29    15    33 1   
    30    16    17 1   
    31    16    21 1   
    32    16    34 1   
    33    17    18 1   
    34    17    35 1   
    35    17    36 1   
    36    18    19 1   
    37    18    37 1   
    38    18    38 1   
    39    19    20 1   
    40    19    39 1   
    41    19    40 1   
    42    20    21 1   
    43    20    41 1   
    44    20    42 1   
    45    21    43 1   
    46    21    44 1   
@<TRIPOS>SUBSTRUCTURE
     1 N69         1 TEMP              0 ****  ****    0 ROOT
