@<TRIPOS>MOLECULE
N6A
   45    47     1     0     0
SMALL
No Charge or Current Charge


@<TRIPOS>ATOM
      1 CAW         -4.8000     0.2190    -0.7670 ca         1 N6A      -0.099000
      2 CAX         -5.6320     1.2210    -1.2960 ca         1 N6A      -0.107000
      3 CBA         -6.0640     2.2800    -0.4810 ca         1 N6A      -0.098000
      4 CAZ         -5.6650     2.3360     0.8650 ca         1 N6A      -0.107000
      5 CAY         -4.8330     1.3350     1.3950 ca         1 N6A      -0.099000
      6 CAV         -4.3910     0.2720     0.5810 ca         1 N6A      -0.131300
      7 CAU         -3.4800    -0.8110     1.1560 c3         1 N6A       0.132300
      8 NAN         -2.2650    -1.0810     0.3320 n          1 N6A      -0.333000
      9 CAO         -1.2090    -0.1760     0.2570 cc         1 N6A       0.413600
     10 NAP         -1.3830     1.0200     0.8720 nv         1 N6A      -0.942000
     11 CAM         -2.1930    -2.3040    -0.3540 c          1 N6A       0.628000
     12 OAL         -3.0830    -3.1380    -0.3470 o          1 N6A      -0.554000
     13 NAD         -1.0580    -2.5370    -1.0500 ns         1 N6A      -0.466500
     14 CAE          0.0330    -1.7490    -1.1740 c          1 N6A       0.604200
     15 OAA          0.9950    -2.1130    -1.8330 o          1 N6A      -0.544000
     16 CAF         -0.0560    -0.4500    -0.4550 cd         1 N6A      -0.263200
     17 NAG          1.0170     0.4950    -0.4850 nh         1 N6A      -0.574300
     18 CAB          1.4460     1.0800    -1.7710 c3         1 N6A       0.189100
     19 SAH          2.0320     0.8210     0.8680 sy         1 N6A       1.148600
     20 OAQ          1.8060     2.2230     1.2420 o          1 N6A      -0.545500
     21 OAC          1.8360    -0.2730     1.8290 o          1 N6A      -0.545500
     22 CAI          3.6660     0.6470     0.1220 ca         1 N6A      -0.279500
     23 CAJ          4.4520     1.7840    -0.1610 ca         1 N6A      -0.008000
     24 CAK          5.7180     1.6300    -0.7530 ca         1 N6A      -0.127500
     25 CAT          6.2030     0.3470    -1.0640 ca         1 N6A      -0.053000
     26 CAS          5.4190    -0.7850    -0.7840 ca         1 N6A      -0.127500
     27 CAR          4.1520    -0.6380    -0.1930 ca         1 N6A      -0.008000
     28 HAW         -4.4740    -0.5980    -1.4080 ha         1 N6A       0.119500
     29 HAX         -5.9430     1.1750    -2.3380 ha         1 N6A       0.119500
     30 HBA         -6.7080     3.0550    -0.8910 ha         1 N6A       0.119000
     31 HAZ         -6.0020     3.1540     1.4980 ha         1 N6A       0.119500
     32 HAY         -4.5350     1.3870     2.4410 ha         1 N6A       0.119500
     33 HAU1        -3.1550    -0.5220     2.1650 h1         1 N6A       0.086700
     34 HAU2        -4.0740    -1.7240     1.2900 h1         1 N6A       0.086700
     35 HAP1        -2.3330     1.3640     0.9420 hn         1 N6A       0.509000
     36 HAP2        -0.6840     1.7200     0.6490 hn         1 N6A       0.509000
     37 HAD         -1.0180    -3.4190    -1.5340 hn         1 N6A       0.347500
     38 HAB1         1.8150     2.1050    -1.6350 h1         1 N6A       0.053367
     39 HAB2         2.2420     0.4750    -2.2240 h1         1 N6A       0.053367
     40 HAB3         0.6030     1.1150    -2.4730 h1         1 N6A       0.053367
     41 HAJ          4.0900     2.7840     0.0720 ha         1 N6A       0.130000
     42 HAR          3.5490    -1.5210     0.0130 ha         1 N6A       0.130000
     43 HAK          6.3250     2.5060    -0.9710 ha         1 N6A       0.115000
     44 HAT          7.1830     0.2320    -1.5220 ha         1 N6A       0.113000
     45 HAS          5.7910    -1.7770    -1.0270 ha         1 N6A       0.115000
@<TRIPOS>BOND
     1     1     2 ar  
     2     1     6 ar  
     3     1    28 1   
     4     2     3 ar  
     5     2    29 1   
     6     3     4 ar  
     7     3    30 1   
     8     4     5 ar  
     9     4    31 1   
    10     5     6 ar  
    11     5    32 1   
    12     6     7 1   
    13     7     8 1   
    14     7    33 1   
    15     7    34 1   
    16     8     9 1   
    17     8    11 1   
    18     9    10 1   
    19     9    16 2   
    20    10    35 1   
    21    10    36 1   
    22    11    12 2   
    23    11    13 1   
    24    13    14 1   
    25    13    37 1   
    26    14    15 2   
    27    14    16 1   
    28    16    17 1   
    29    17    18 1   
    30    17    19 1   
    31    18    38 1   
    32    18    39 1   
    33    18    40 1   
    34    19    20 2   
    35    19    21 2   
    36    19    22 1   
    37    22    23 ar  
    38    22    27 ar  
    39    23    24 ar  
    40    23    41 1   
    41    24    25 ar  
    42    24    43 1   
    43    25    26 ar  
    44    25    44 1   
    45    26    27 ar  
    46    26    45 1   
    47    27    42 1   
@<TRIPOS>SUBSTRUCTURE
     1 N6A         1 TEMP              0 ****  ****    0 ROOT
