@<TRIPOS>MOLECULE
N6A
   45    47     1     0     0
SMALL
bcc


@<TRIPOS>ATOM
      1 CAW         -4.4840     0.0160    -0.8510 ca         1 N6A      -0.117000
      2 CAX         -5.5670     0.7700    -1.2790 ca         1 N6A      -0.125000
      3 CBA         -6.3250     1.4910    -0.3640 ca         1 N6A      -0.116000
      4 CAZ         -5.9930     1.4560     0.9820 ca         1 N6A      -0.125000
      5 CAY         -4.9060     0.7050     1.4100 ca         1 N6A      -0.117000
      6 CAV         -4.1440    -0.0210     0.4990 ca         1 N6A      -0.131300
      7 CAU         -2.9930    -0.8600     0.9970 c3         1 N6A       0.132300
      8 NAN         -1.7980    -0.7760     0.1600 n          1 N6A      -0.400000
      9 CAO         -1.0070     0.3470     0.1900 cc         1 N6A       0.413600
     10 NAP         -1.4130     1.3770     0.9330 nv         1 N6A      -0.831600
     11 CAM         -1.4780    -1.8750    -0.6250 c          1 N6A       0.837500
     12 OAL         -2.1920    -2.8540    -0.6870 o          1 N6A      -0.629500
     13 NAD         -0.3150    -1.7760    -1.3210 ns         1 N6A      -0.600500
     14 CAE          0.5780    -0.7080    -1.3360 c          1 N6A       0.746700
     15 OAA          1.5710    -0.7610    -2.0430 o          1 N6A      -0.619500
     16 CAF          0.1920     0.3810    -0.5030 cd         1 N6A      -0.263200
     17 NAG          0.9600     1.5630    -0.4550 nh         1 N6A      -0.574300
     18 CAB          1.1740     2.3170    -1.6910 c3         1 N6A       0.189100
     19 SAH          2.1680     1.6110     0.6950 sy         1 N6A       1.290200
     20 OAQ          2.6680     2.9770     0.7100 o          1 N6A      -0.616300
     21 OAC          1.6110     1.0340     1.9060 o          1 N6A      -0.616300
     22 CAI          3.4700     0.5550     0.1310 ca         1 N6A      -0.279500
     23 CAJ          4.4260     1.0640    -0.7370 ca         1 N6A      -0.026000
     24 CAK          5.4210     0.2220    -1.2090 ca         1 N6A      -0.145500
     25 CAT          5.4570    -1.1080    -0.8090 ca         1 N6A      -0.071000
     26 CAS          4.5000    -1.6000     0.0690 ca         1 N6A      -0.145500
     27 CAR          3.4980    -0.7700     0.5460 ca         1 N6A      -0.026000
     28 HAW         -3.9100    -0.5440    -1.5790 ha         1 N6A       0.137500
     29 HAX         -5.8220     0.7920    -2.3310 ha         1 N6A       0.137500
     30 HBA         -7.1700     2.0770    -0.7020 ha         1 N6A       0.137000
     31 HAZ         -6.5750     2.0180     1.7010 ha         1 N6A       0.137500
     32 HAY         -4.6480     0.6850     2.4630 ha         1 N6A       0.137500
     33 HAU1        -2.7240    -0.5800     2.0180 h1         1 N6A       0.086700
     34 HAU2        -3.2860    -1.9060     1.0350 h1         1 N6A       0.086700
     35 HAP1        -2.3700     1.4910     1.2200 hn         1 N6A       0.453800
     36 HAP2        -0.8670     2.2220     0.8860 hn         1 N6A       0.453800
     37 HAD         -0.0890    -2.5670    -1.9120 hn         1 N6A       0.347500
     38 HAB1         1.3900     3.3580    -1.4690 h1         1 N6A       0.053367
     39 HAB2         1.9730     1.9030    -2.3070 h1         1 N6A       0.053367
     40 HAB3         0.2460     2.2780    -2.2570 h1         1 N6A       0.053367
     41 HAJ          4.4090     2.1020    -1.0410 ha         1 N6A       0.148000
     42 HAR          2.7560    -1.1560     1.2300 ha         1 N6A       0.148000
     43 HAK          6.1730     0.6080    -1.8840 ha         1 N6A       0.133000
     44 HAT          6.2360    -1.7610    -1.1790 ha         1 N6A       0.131000
     45 HAS          4.5360    -2.6330     0.3880 ha         1 N6A       0.133000
@<TRIPOS>BOND
     1     1     2 ar  
     2     1     6 ar  
     3     1    28 1   
     4     2     3 ar  
     5     2    29 1   
     6     3     4 ar  
     7     3    30 1   
     8     4     5 ar  
     9     4    31 1   
    10     5     6 ar  
    11     5    32 1   
    12     6     7 1   
    13     7     8 1   
    14     7    33 1   
    15     7    34 1   
    16     8     9 1   
    17     8    11 1   
    18     9    10 1   
    19     9    16 2   
    20    10    35 1   
    21    10    36 1   
    22    11    12 2   
    23    11    13 1   
    24    13    14 1   
    25    13    37 1   
    26    14    15 2   
    27    14    16 1   
    28    16    17 1   
    29    17    18 1   
    30    17    19 1   
    31    18    38 1   
    32    18    39 1   
    33    18    40 1   
    34    19    20 2   
    35    19    21 2   
    36    19    22 1   
    37    22    23 ar  
    38    22    27 ar  
    39    23    24 ar  
    40    23    41 1   
    41    24    25 ar  
    42    24    43 1   
    43    25    26 ar  
    44    25    44 1   
    45    26    27 ar  
    46    26    45 1   
    47    27    42 1   
@<TRIPOS>SUBSTRUCTURE
     1 N6A         1 TEMP              0 ****  ****    0 ROOT
