@<TRIPOS>MOLECULE
N6B
   61    65     1     0     0
SMALL
No Charge or Current Charge


@<TRIPOS>ATOM
      1 C1         -20.1310    11.7590    -0.6130 c          1 N6B       0.611700
      2 N2         -14.3060     8.0910    -1.2110 nc         1 N6B      -0.344000
      3 C3         -14.7640     8.8030    -0.1400 cc         1 N6B       0.229500
      4 C4         -21.3140    12.5450     1.4530 ca         1 N6B      -0.053000
      5 C5         -21.3430    13.0930     2.7420 ca         1 N6B      -0.165000
      6 C6         -16.1210     8.8320    -0.0950 cd         1 N6B      -0.163000
      7 C7         -20.1490    13.4300     3.3880 ca         1 N6B       0.205000
      8 C25        -13.6350    10.5940     3.0210 ca         1 N6B       0.155500
      9 C24        -12.2740    10.8080     2.7480 ca         1 N6B       0.088000
     10 F2         -11.4860    11.4370     3.6540 f          1 N6B      -0.144000
     11 C23        -11.7350    10.3570     1.5320 ca         1 N6B       0.155500
     12 F3         -10.4240    10.5470     1.2560 f          1 N6B      -0.159000
     13 C22        -12.5510     9.7050     0.5920 ca         1 N6B      -0.134500
     14 C26        -14.4540     9.9420     2.0850 ca         1 N6B      -0.134500
     15 C21        -13.9260     9.5010     0.8470 ca         1 N6B      -0.053500
     16 N4         -16.4700     8.0860    -1.2030 na         1 N6B       0.129800
     17 N3         -15.3500     7.6420    -1.8670 nd         1 N6B      -0.189800
     18 C10        -17.8490     7.7980    -1.6750 c6         1 N6B       0.082300
     19 C17        -18.7200     9.0910    -1.7170 c6         1 N6B       0.135300
     20 O5         -18.1480    10.0840    -2.5930 oh         1 N6B      -0.726000
     21 C14        -20.1900     8.7610    -2.1460 c6         1 N6B       0.111300
     22 O4         -20.7360     7.7180    -1.3040 os         1 N6B      -0.439000
     23 C12        -19.9860     6.4740    -1.3560 c6         1 N6B       0.156300
     24 C13        -20.7830     5.3720    -0.5810 c3         1 N6B       0.168600
     25 O3         -22.0930     5.1250    -1.1340 oh         1 N6B      -0.717000
     26 C11        -18.5360     6.6950    -0.8050 c6         1 N6B       0.128300
     27 O2         -18.5500     7.0790     0.5930 oh         1 N6B      -0.717000
     28 N1         -21.0640    10.7690    -0.8290 ns         1 N6B      -0.489900
     29 O1         -19.4130    12.1470    -1.5260 o          1 N6B      -0.631100
     30 C2         -20.0870    12.3290     0.7840 ca         1 N6B      -0.151600
     31 C9         -18.8660    12.6540     1.4500 ca         1 N6B       0.019000
     32 C19        -17.5970    12.4070     0.8670 ca         1 N6B      -0.107000
     33 C18        -16.4120    12.7350     1.5440 ca         1 N6B      -0.093000
     34 C16        -16.4660    13.3030     2.8230 ca         1 N6B      -0.104000
     35 C15        -17.7080    13.5370     3.4290 ca         1 N6B      -0.083000
     36 C8         -18.9070    13.2120     2.7570 ca         1 N6B      -0.080000
     37 H1         -22.2600    12.3150     0.9640 ha         1 N6B       0.122000
     38 H2         -22.2930    13.2650     3.2410 ha         1 N6B       0.139000
     39 H3         -16.8270     9.2900     0.5820 h4         1 N6B       0.178000
     40 H5         -15.4990     9.7830     2.3360 ha         1 N6B       0.149500
     41 H6         -17.7710     7.4170    -2.7020 h1         1 N6B       0.108700
     42 H7         -18.7530     9.4840    -0.6910 h1         1 N6B       0.054700
     43 H8         -18.5610    10.9550    -2.3170 ho         1 N6B       0.549000
     44 H9         -20.1910     8.3960    -3.1840 h1         1 N6B       0.061700
     45 H10        -19.9200     6.1480    -2.4050 h1         1 N6B       0.062700
     46 H11        -20.1900     4.4480    -0.5980 h1         1 N6B       0.037200
     47 H12        -20.8740     5.6830     0.4680 h1         1 N6B       0.037200
     48 H13        -22.5440     4.4870    -0.5320 ho         1 N6B       0.508000
     49 H14        -17.9680     5.7610    -0.9330 h1         1 N6B       0.061700
     50 H15        -18.5900     6.2540     1.1310 ho         1 N6B       0.513000
     51 H18        -21.6120    10.4770    -0.0280 hn         1 N6B       0.331500
     52 H19        -17.4960    11.9490    -0.1100 ha         1 N6B       0.131000
     53 H20        -15.4480    12.5450     1.0760 ha         1 N6B       0.122000
     54 H21        -15.5460    13.5540     3.3470 ha         1 N6B       0.126000
     55 H22        -17.7300    13.9680     4.4280 ha         1 N6B       0.130000
     56 F1         -20.2110    13.9590     4.6320 f          1 N6B      -0.175000
     57 C20        -21.1670     9.9810    -2.0710 c3         1 N6B       0.104000
     58 H4         -12.1080     9.3660    -0.3410 ha         1 N6B       0.149500
     59 F4         -14.1680    11.0120     4.1920 f          1 N6B      -0.159000
     60 H16        -20.9720    10.6380    -2.9290 h1         1 N6B       0.079700
     61 H17        -22.1960     9.6130    -2.1750 h1         1 N6B       0.079700
@<TRIPOS>BOND
     1     1    28 1   
     2     1    29 2   
     3     1    30 1   
     4     2     3 1   
     5     2    17 2   
     6     3     6 2   
     7     3    15 1   
     8     4     5 ar  
     9     4    30 ar  
    10     4    37 1   
    11     5     7 ar  
    12     5    38 1   
    13     6    16 1   
    14     6    39 1   
    15     7    36 ar  
    16     7    56 1   
    17     8     9 ar  
    18     8    14 ar  
    19     8    59 1   
    20     9    10 1   
    21     9    11 ar  
    22    11    12 1   
    23    11    13 ar  
    24    13    15 ar  
    25    13    58 1   
    26    14    15 ar  
    27    14    40 1   
    28    16    17 1   
    29    16    18 1   
    30    18    19 1   
    31    18    26 1   
    32    18    41 1   
    33    19    20 1   
    34    19    21 1   
    35    19    42 1   
    36    20    43 1   
    37    21    22 1   
    38    21    44 1   
    39    21    57 1   
    40    22    23 1   
    41    23    24 1   
    42    23    26 1   
    43    23    45 1   
    44    24    25 1   
    45    24    46 1   
    46    24    47 1   
    47    25    48 1   
    48    26    27 1   
    49    26    49 1   
    50    27    50 1   
    51    28    51 1   
    52    28    57 1   
    53    30    31 ar  
    54    31    32 ar  
    55    31    36 ar  
    56    32    33 ar  
    57    32    52 1   
    58    33    34 ar  
    59    33    53 1   
    60    34    35 ar  
    61    34    54 1   
    62    35    36 ar  
    63    35    55 1   
    64    57    60 1   
    65    57    61 1   
@<TRIPOS>SUBSTRUCTURE
     1 N6B         1 TEMP              0 ****  ****    0 ROOT
