@<TRIPOS>MOLECULE
N6B
   61    65     1     0     0
SMALL
abcg2


@<TRIPOS>ATOM
      1 C1         -20.2440    11.7580    -0.6280 c          1 N6B       0.611700
      2 N2         -14.3720     8.2220    -1.2870 nc         1 N6B      -0.344000
      3 C3         -14.7390     8.8690    -0.1430 cc         1 N6B       0.229500
      4 C4         -21.5150    12.6750     1.2930 ca         1 N6B      -0.053000
      5 C5         -21.6100    13.2670     2.5660 ca         1 N6B      -0.165000
      6 C6         -16.1180     8.8540    -0.0800 cd         1 N6B      -0.163000
      7 C7         -20.4610    13.5030     3.2590 ca         1 N6B       0.205000
      8 C25        -13.2870    10.4600     2.9140 ca         1 N6B       0.155500
      9 C24        -11.9420    10.5540     2.5890 ca         1 N6B       0.088000
     10 F2         -11.0610    11.0820     3.4500 f          1 N6B      -0.144000
     11 C23        -11.5320    10.0820     1.3510 ca         1 N6B       0.155500
     12 F3         -10.2260    10.1760     1.0400 f          1 N6B      -0.159000
     13 C22        -12.4240     9.5340     0.4530 ca         1 N6B      -0.134500
     14 C26        -14.2030     9.9090     2.0440 ca         1 N6B      -0.134500
     15 C21        -13.7770     9.4430     0.7950 ca         1 N6B      -0.053500
     16 N4         -16.5060     8.1940    -1.1890 na         1 N6B       0.129800
     17 N3         -15.4390     7.8190    -1.9160 nd         1 N6B      -0.189800
     18 C10        -17.8570     7.8810    -1.6400 c6         1 N6B       0.082300
     19 C17        -18.7120     9.1410    -1.6970 c6         1 N6B       0.135300
     20 O5         -18.1280    10.0470    -2.6150 oh         1 N6B      -0.726000
     21 C14        -20.1460     8.7740    -2.1060 c6         1 N6B       0.111300
     22 O4         -20.6760     7.7970    -1.2180 os         1 N6B      -0.439000
     23 C12        -19.9410     6.5740    -1.2420 c6         1 N6B       0.156300
     24 C13        -20.6710     5.5630    -0.3890 c3         1 N6B       0.168600
     25 O3         -21.8780     5.1890    -1.0540 oh         1 N6B      -0.717000
     26 C11        -18.5080     6.8050    -0.7560 c6         1 N6B       0.128300
     27 O2         -18.5100     7.2350     0.6040 oh         1 N6B      -0.717000
     28 N1         -21.0640    10.7130    -0.8420 ns         1 N6B      -0.489900
     29 O1         -19.4850    12.2000    -1.5040 o          1 N6B      -0.631100
     30 C2         -20.2960    12.3560     0.7390 ca         1 N6B      -0.151600
     31 C9         -19.0890    12.6060     1.4620 ca         1 N6B       0.019000
     32 C19        -17.8000    12.2750     0.9740 ca         1 N6B      -0.107000
     33 C18        -16.6770    12.5140     1.7240 ca         1 N6B      -0.093000
     34 C16        -16.7730    13.0950     3.0050 ca         1 N6B      -0.104000
     35 C15        -18.0010    13.4270     3.5170 ca         1 N6B      -0.083000
     36 C8         -19.1750    13.1900     2.7640 ca         1 N6B      -0.080000
     37 H1         -22.4250    12.4900     0.7370 ha         1 N6B       0.122000
     38 H2         -22.5680    13.5310     2.9920 ha         1 N6B       0.139000
     39 H3         -16.8160     9.2480     0.6320 h4         1 N6B       0.178000
     40 H5         -15.2360     9.8480     2.3530 ha         1 N6B       0.149500
     41 H6         -17.7420     7.4820    -2.6480 h1         1 N6B       0.108700
     42 H7         -18.7460     9.5770    -0.6960 h1         1 N6B       0.054700
     43 H8         -18.5030    10.9270    -2.4130 ho         1 N6B       0.549000
     44 H9         -20.1250     8.3720    -3.1280 h1         1 N6B       0.061700
     45 H10        -19.8970     6.2020    -2.2750 h1         1 N6B       0.062700
     46 H11        -20.0220     4.6920    -0.2450 h1         1 N6B       0.037200
     47 H12        -20.8840     6.0020     0.5890 h1         1 N6B       0.037200
     48 H13        -22.3910     4.6330    -0.4560 ho         1 N6B       0.508000
     49 H14        -17.9400     5.8790    -0.8600 h1         1 N6B       0.061700
     50 H15        -18.0700     6.5700     1.1440 ho         1 N6B       0.513000
     51 H18        -21.5620    10.3300    -0.0550 hn         1 N6B       0.331500
     52 H19        -17.7030    11.8340    -0.0050 ha         1 N6B       0.131000
     53 H20        -15.7050    12.2510     1.3290 ha         1 N6B       0.122000
     54 H21        -15.8760    13.2720     3.5840 ha         1 N6B       0.126000
     55 H22        -18.0870    13.8680     4.5000 ha         1 N6B       0.130000
     56 F1         -20.5400    14.0630     4.4880 f          1 N6B      -0.175000
     57 C20        -21.0880     9.9750    -2.0940 c3         1 N6B       0.104000
     58 H4         -12.0640     9.1840    -0.5040 ha         1 N6B       0.149500
     59 F4         -13.6870    10.9190     4.1140 f          1 N6B      -0.159000
     60 H16        -20.8160    10.6550    -2.8970 h1         1 N6B       0.079700
     61 H17        -22.1030     9.6220    -2.2710 h1         1 N6B       0.079700
@<TRIPOS>BOND
     1     1    28 1   
     2     1    29 2   
     3     1    30 1   
     4     2     3 1   
     5     2    17 2   
     6     3     6 2   
     7     3    15 1   
     8     4     5 ar  
     9     4    30 ar  
    10     4    37 1   
    11     5     7 ar  
    12     5    38 1   
    13     6    16 1   
    14     6    39 1   
    15     7    36 ar  
    16     7    56 1   
    17     8     9 ar  
    18     8    14 ar  
    19     8    59 1   
    20     9    10 1   
    21     9    11 ar  
    22    11    12 1   
    23    11    13 ar  
    24    13    15 ar  
    25    13    58 1   
    26    14    15 ar  
    27    14    40 1   
    28    16    17 1   
    29    16    18 1   
    30    18    19 1   
    31    18    26 1   
    32    18    41 1   
    33    19    20 1   
    34    19    21 1   
    35    19    42 1   
    36    20    43 1   
    37    21    22 1   
    38    21    44 1   
    39    21    57 1   
    40    22    23 1   
    41    23    24 1   
    42    23    26 1   
    43    23    45 1   
    44    24    25 1   
    45    24    46 1   
    46    24    47 1   
    47    25    48 1   
    48    26    27 1   
    49    26    49 1   
    50    27    50 1   
    51    28    51 1   
    52    28    57 1   
    53    30    31 ar  
    54    31    32 ar  
    55    31    36 ar  
    56    32    33 ar  
    57    32    52 1   
    58    33    34 ar  
    59    33    53 1   
    60    34    35 ar  
    61    34    54 1   
    62    35    36 ar  
    63    35    55 1   
    64    57    60 1   
    65    57    61 1   
@<TRIPOS>SUBSTRUCTURE
     1 N6B         1 TEMP              0 ****  ****    0 ROOT
