@<TRIPOS>MOLECULE
N6C
   22    21     1     0     0
SMALL
No Charge or Current Charge


@<TRIPOS>ATOM
      1 O1           3.3630    -0.0940     1.1280 o          1 N6C      -0.400000
      2 N1           2.8740    -0.0340    -0.0060 no         1 N6C       0.582000
      3 O2           3.3590    -0.5670    -1.0110 o          1 N6C      -0.400000
      4 C1           1.5590     0.7280    -0.1720 c3         1 N6C      -0.046400
      5 C2           0.3270    -0.1860     0.0320 c3         1 N6C      -0.085400
      6 C3          -1.0100     0.5700    -0.1320 c3         1 N6C      -0.076400
      7 C4          -2.2450    -0.3350     0.0710 c3         1 N6C      -0.075400
      8 C5          -3.5810     0.4210    -0.0940 c3         1 N6C      -0.074400
      9 C6          -4.8140    -0.4820     0.1080 c3         1 N6C      -0.089100
     10 H1           1.5780     1.5390     0.5650 h1         1 N6C       0.091700
     11 H1A          1.5750     1.1530    -1.1830 h1         1 N6C       0.091700
     12 H2           0.3670    -1.0130    -0.6890 hc         1 N6C       0.068700
     13 H2A          0.3700    -0.6320     1.0340 hc         1 N6C       0.068700
     14 H3          -1.0470     1.3970     0.5890 hc         1 N6C       0.040700
     15 H3A         -1.0510     1.0160    -1.1340 hc         1 N6C       0.040700
     16 H4          -2.2080    -1.1620    -0.6500 hc         1 N6C       0.042700
     17 H4A         -2.2040    -0.7820     1.0720 hc         1 N6C       0.042700
     18 H5          -3.6230     1.2470     0.6270 hc         1 N6C       0.037700
     19 H5A         -3.6270     0.8670    -1.0950 hc         1 N6C       0.037700
     20 H6          -4.8200    -1.3000    -0.6220 hc         1 N6C       0.033700
     21 H6A         -4.8160    -0.9160     1.1150 hc         1 N6C       0.033700
     22 H6B         -5.7370     0.0970    -0.0180 hc         1 N6C       0.033700
@<TRIPOS>BOND
     1     1     2 1   
     2     2     3 1   
     3     2     4 1   
     4     4     5 1   
     5     4    10 1   
     6     4    11 1   
     7     5     6 1   
     8     5    12 1   
     9     5    13 1   
    10     6     7 1   
    11     6    14 1   
    12     6    15 1   
    13     7     8 1   
    14     7    16 1   
    15     7    17 1   
    16     8     9 1   
    17     8    18 1   
    18     8    19 1   
    19     9    20 1   
    20     9    21 1   
    21     9    22 1   
@<TRIPOS>SUBSTRUCTURE
     1 N6C         1 TEMP              0 ****  ****    0 ROOT
