@<TRIPOS>MOLECULE
N6C
   22    21     1     0     0
SMALL
bcc


@<TRIPOS>ATOM
      1 O1           2.8700    -1.0780     0.4860 o          1 N6C      -0.210000
      2 N1           2.8190     0.0160    -0.0170 no         1 N6C       0.231300
      3 O2           3.7900     0.6650    -0.3290 o          1 N6C      -0.210000
      4 C1           1.4860     0.6370    -0.2770 c3         1 N6C      -0.075700
      5 C2           0.3050    -0.2340     0.0860 c3         1 N6C      -0.085400
      6 C3          -0.9960     0.5100    -0.2040 c3         1 N6C      -0.076400
      7 C4          -2.2280    -0.3200     0.1330 c3         1 N6C      -0.075400
      8 C5          -3.5350     0.4150    -0.1420 c3         1 N6C      -0.074400
      9 C6          -4.7630    -0.4140     0.2080 c3         1 N6C      -0.089100
     10 H1           1.4940     1.5700     0.2890 h1         1 N6C       0.091700
     11 H1A          1.4930     0.8950    -1.3370 h1         1 N6C       0.091700
     12 H2           0.3300    -1.1620    -0.4880 hc         1 N6C       0.068700
     13 H2A          0.3420    -0.5010     1.1440 hc         1 N6C       0.068700
     14 H3          -1.0180     1.4420     0.3690 hc         1 N6C       0.040700
     15 H3A         -1.0290     0.7960    -1.2600 hc         1 N6C       0.040700
     16 H4          -2.2080    -1.2500    -0.4430 hc         1 N6C       0.042700
     17 H4A         -2.1920    -0.6120     1.1880 hc         1 N6C       0.042700
     18 H5          -3.5510     1.3500     0.4260 hc         1 N6C       0.037700
     19 H5A         -3.5740     0.6990    -1.1980 hc         1 N6C       0.037700
     20 H6          -4.7930    -1.3400    -0.3680 hc         1 N6C       0.033700
     21 H6A         -4.7690    -0.6840     1.2660 hc         1 N6C       0.033700
     22 H6B         -5.6850     0.1320     0.0030 hc         1 N6C       0.033700
@<TRIPOS>BOND
     1     1     2 1   
     2     2     3 1   
     3     2     4 1   
     4     4     5 1   
     5     4    10 1   
     6     4    11 1   
     7     5     6 1   
     8     5    12 1   
     9     5    13 1   
    10     6     7 1   
    11     6    14 1   
    12     6    15 1   
    13     7     8 1   
    14     7    16 1   
    15     7    17 1   
    16     8     9 1   
    17     8    18 1   
    18     8    19 1   
    19     9    20 1   
    20     9    21 1   
    21     9    22 1   
@<TRIPOS>SUBSTRUCTURE
     1 N6C         1 TEMP              0 ****  ****    0 ROOT
