@<TRIPOS>MOLECULE
N6D
   34    35     1     0     0
SMALL
No Charge or Current Charge


@<TRIPOS>ATOM
      1 N1           1.9940     0.6780    -0.2450 ns         1 N6D      -0.497400
      2 C4          -2.8920    -2.4530     0.5450 ca         1 N6D      -0.089000
      3 C5          -1.6170    -1.8890     0.3660 ca         1 N6D      -0.122000
      4 C6          -1.4710    -0.4930     0.2080 ca         1 N6D      -0.013000
      5 C7           1.0820    -0.3290    -0.0470 c          1 N6D       0.678100
      6 C8           3.3600     0.6050    -0.3640 cc         1 N6D       0.421900
      7 C10          5.4240    -0.1070    -0.4770 cd         1 N6D       0.190300
      8 N           -0.2170     0.1540     0.0200 ns         1 N6D      -0.157000
      9 C           -6.8310     1.5880    -1.0020 c3         1 N6D       0.142900
     10 O           -5.6580     0.7660    -0.8900 os         1 N6D      -0.446000
     11 C11          6.7270    -0.8520    -0.5150 c3         1 N6D      -0.137400
     12 C12         -2.6210     0.3190     0.2350 ca         1 N6D      -0.147000
     13 C2          -3.9010    -0.2400     0.4150 ca         1 N6D      -0.058300
     14 C3          -4.0300    -1.6320     0.5690 ca         1 N6D      -0.111000
     15 C9           4.1570    -0.5510    -0.3090 cc         1 N6D      -0.240000
     16 N2           4.0530     1.7110    -0.5520 nd         1 N6D      -0.441300
     17 O1           1.3910    -1.5060     0.0560 o          1 N6D      -0.597100
     18 O2           5.4190     1.2540    -0.6290 os         1 N6D      -0.066700
     19 H1           1.5970     1.6030    -0.3110 hn         1 N6D       0.334500
     20 H2          -2.9970    -3.5290     0.6640 ha         1 N6D       0.117000
     21 H3          -0.7600    -2.5560     0.3510 ha         1 N6D       0.147000
     22 H4          -0.2940     1.1560    -0.0840 hn         1 N6D       0.150000
     23 H5          -6.6210     2.6140    -0.6730 h1         1 N6D       0.029367
     24 H6          -7.1720     1.6270    -2.0450 h1         1 N6D       0.029367
     25 H7          -7.6490     1.1860    -0.3900 h1         1 N6D       0.029367
     26 H8          -4.8630     1.6420     0.8370 h1         1 N6D       0.027700
     27 H9          -5.8860     0.2190     1.1180 h1         1 N6D       0.027700
     28 H10          7.2300    -0.7100    -1.4780 hc         1 N6D       0.063367
     29 H11          7.4020    -0.5000     0.2740 hc         1 N6D       0.063367
     30 H12          6.5710    -1.9270    -0.3700 hc         1 N6D       0.063367
     31 H13         -2.5230     1.3960     0.1120 ha         1 N6D       0.109000
     32 H14         -5.0140    -2.0770     0.7070 ha         1 N6D       0.119000
     33 H15          3.8340    -1.5720    -0.1640 ha         1 N6D       0.177000
     34 C1          -5.1360     0.6540     0.4440 c3         1 N6D       0.202900
@<TRIPOS>BOND
     1     1     5 1   
     2     1     6 1   
     3     1    19 1   
     4     2     3 ar  
     5     2    14 ar  
     6     2    20 1   
     7     3     4 ar  
     8     3    21 1   
     9     4     8 1   
    10     4    12 ar  
    11     5     8 1   
    12     5    17 2   
    13     6    15 1   
    14     6    16 2   
    15     7    11 1   
    16     7    15 2   
    17     7    18 1   
    18     8    22 1   
    19     9    10 1   
    20     9    23 1   
    21     9    24 1   
    22     9    25 1   
    23    10    34 1   
    24    11    28 1   
    25    11    29 1   
    26    11    30 1   
    27    12    13 ar  
    28    12    31 1   
    29    13    14 ar  
    30    13    34 1   
    31    14    32 1   
    32    15    33 1   
    33    16    18 1   
    34    26    34 1   
    35    27    34 1   
@<TRIPOS>SUBSTRUCTURE
     1 N6D         1 TEMP              0 ****  ****    0 ROOT
