@<TRIPOS>MOLECULE
N6D
   34    35     1     0     0
SMALL
abcg2


@<TRIPOS>ATOM
      1 N1           1.9730     0.7830     0.0310 ns         1 N6D      -0.497400
      2 C4          -2.8130    -2.3520     0.6270 ca         1 N6D      -0.089000
      3 C5          -1.5530    -1.7750     0.5290 ca         1 N6D      -0.122000
      4 C6          -1.4440    -0.3930     0.3760 ca         1 N6D      -0.013000
      5 C7           1.0120    -0.2000     0.0760 c          1 N6D       0.678100
      6 C8           3.3140     0.5730    -0.1850 cc         1 N6D       0.421900
      7 C10          5.3140    -0.2000    -0.5500 cd         1 N6D       0.190300
      8 N           -0.2360     0.3050     0.2870 ns         1 N6D      -0.157000
      9 C           -6.7020     1.4000    -1.1860 c3         1 N6D       0.142900
     10 O           -5.5370     0.6340    -1.0000 os         1 N6D      -0.446000
     11 C11          6.5850    -0.9150    -0.8000 c3         1 N6D      -0.137400
     12 C12         -2.6100     0.3770     0.3330 ca         1 N6D      -0.147000
     13 C2          -3.8640    -0.2040     0.4390 ca         1 N6D      -0.058300
     14 C3          -3.9650    -1.5850     0.5820 ca         1 N6D      -0.111000
     15 C9           4.0380    -0.6300    -0.4040 cc         1 N6D      -0.240000
     16 N2           4.1010     1.6150    -0.2020 nd         1 N6D      -0.441300
     17 O1           1.2700    -1.3800    -0.0590 o          1 N6D      -0.597100
     18 O2           5.3570     1.1280    -0.4310 os         1 N6D      -0.066700
     19 H1           1.7070     1.7470     0.1700 hn         1 N6D       0.334500
     20 H2          -2.8850    -3.4250     0.7460 ha         1 N6D       0.117000
     21 H3          -0.6790    -2.4020     0.5800 ha         1 N6D       0.147000
     22 H4          -0.3320     1.3090     0.3110 hn         1 N6D       0.150000
     23 H5          -6.5510     2.4520    -0.9140 h1         1 N6D       0.029367
     24 H6          -6.9690     1.3530    -2.2410 h1         1 N6D       0.029367
     25 H7          -7.5450     1.0190    -0.5980 h1         1 N6D       0.029367
     26 H8          -4.8810     1.6710     0.6680 h1         1 N6D       0.027700
     27 H9          -5.8790     0.2550     1.0060 h1         1 N6D       0.027700
     28 H10          7.0530    -0.5780    -1.7260 hc         1 N6D       0.063367
     29 H11          7.2960    -0.7520     0.0110 hc         1 N6D       0.063367
     30 H12          6.3980    -1.9830    -0.8800 hc         1 N6D       0.063367
     31 H13         -2.5320     1.4530     0.2200 ha         1 N6D       0.109000
     32 H14         -4.9370    -2.0540     0.6680 ha         1 N6D       0.119000
     33 H15          3.6820    -1.6420    -0.4450 ha         1 N6D       0.177000
     34 C1          -5.0980     0.6460     0.3390 c3         1 N6D       0.202900
@<TRIPOS>BOND
     1     1     5 1   
     2     1     6 1   
     3     1    19 1   
     4     2     3 ar  
     5     2    14 ar  
     6     2    20 1   
     7     3     4 ar  
     8     3    21 1   
     9     4     8 1   
    10     4    12 ar  
    11     5     8 1   
    12     5    17 2   
    13     6    15 1   
    14     6    16 2   
    15     7    11 1   
    16     7    15 2   
    17     7    18 1   
    18     8    22 1   
    19     9    10 1   
    20     9    23 1   
    21     9    24 1   
    22     9    25 1   
    23    10    34 1   
    24    11    28 1   
    25    11    29 1   
    26    11    30 1   
    27    12    13 ar  
    28    12    31 1   
    29    13    14 ar  
    30    13    34 1   
    31    14    32 1   
    32    15    33 1   
    33    16    18 1   
    34    26    34 1   
    35    27    34 1   
@<TRIPOS>SUBSTRUCTURE
     1 N6D         1 TEMP              0 ****  ****    0 ROOT
