@<TRIPOS>MOLECULE
N6F
   38    39     1     0     0
SMALL
abcg2


@<TRIPOS>ATOM
      1 N1           7.7180     0.8990    17.6420 nb         1 N6F      -0.674000
      2 C4           8.2520     0.4950    18.7960 ca         1 N6F       0.368900
      3 C5           6.4130     1.1930    17.6590 ca         1 N6F       0.360900
      4 C6           5.6030     1.1070    18.7800 ca         1 N6F      -0.189000
      5 C7           6.1690     0.6880    19.9880 ca         1 N6F       0.029000
      6 C8           4.1650     0.8250    21.4650 c          1 N6F       0.608100
      7 C10         11.1520    -0.0390    22.6810 ca         1 N6F      -0.070300
      8 C13         13.8400    -0.3470    21.9290 ca         1 N6F      -0.095000
      9 C15         11.4910    -0.8530    21.5990 ca         1 N6F      -0.100000
     10 C14         12.8220    -0.9910    21.2380 ca         1 N6F       0.126000
     11 C12         13.4960     0.4610    23.0070 ca         1 N6F      -0.098000
     12 C11         12.1650     0.6180    23.3770 ca         1 N6F      -0.091000
     13 C1           9.7000     0.1280    23.0960 c3         1 N6F      -0.098400
     14 C            9.1020    -1.1720    23.6460 c3         1 N6F      -0.088100
     15 C2           8.9330     0.7680    21.9390 c          1 N6F       0.598100
     16 O            9.0100     1.9700    21.7190 o          1 N6F      -0.566100
     17 C3           7.5380     0.3720    19.9760 ca         1 N6F      -0.173000
     18 N2           5.4840     0.5600    21.1870 ns         1 N6F      -0.147000
     19 C9           3.7880     0.6190    22.9110 c3         1 N6F      -0.178100
     20 O1           3.3660     1.2180    20.6280 o          1 N6F      -0.569100
     21 H1           9.3100     0.2510    18.8010 h4         1 N6F       0.026100
     22 H2           5.9810     1.5190    16.7190 h4         1 N6F       0.024100
     23 H3           4.5580     1.3590    18.7230 ha         1 N6F       0.159000
     24 H4          14.8710    -0.4720    21.6310 ha         1 N6F       0.133000
     25 H5          10.7290    -1.3720    21.0340 ha         1 N6F       0.124000
     26 H6          14.2750     0.9720    23.5580 ha         1 N6F       0.122000
     27 H7          11.9090     1.2540    24.2150 ha         1 N6F       0.121000
     28 H8           9.6730     0.8810    23.8840 hc         1 N6F       0.084700
     29 H9           9.6540    -1.4700    24.5380 hc         1 N6F       0.043033
     30 H10          8.0550    -1.0340    23.9200 hc         1 N6F       0.043033
     31 H11          9.1730    -1.9940    22.9310 hc         1 N6F       0.043033
     32 H13          6.0470     0.2380    21.9610 hn         1 N6F       0.157000
     33 H14          2.7480     0.3030    22.9640 hc         1 N6F       0.067033
     34 H15          4.4250    -0.1100    23.4100 hc         1 N6F       0.067033
     35 H16          3.8830     1.5750    23.4330 hc         1 N6F       0.067033
     36 N            8.1890    -0.0660    21.1630 ns         1 N6F      -0.181000
     37 CL          13.2290    -2.0050    19.8660 cl         1 N6F      -0.209000
     38 H12          8.1760    -1.0530    21.3720 hn         1 N6F       0.156000
@<TRIPOS>BOND
     1     1     2 ar  
     2     1     3 ar  
     3     2    17 ar  
     4     2    21 1   
     5     3     4 ar  
     6     3    22 1   
     7     4     5 ar  
     8     4    23 1   
     9     5    17 ar  
    10     5    18 1   
    11     6    18 1   
    12     6    19 1   
    13     6    20 2   
    14     7     9 ar  
    15     7    12 ar  
    16     7    13 1   
    17     8    10 ar  
    18     8    11 ar  
    19     8    24 1   
    20     9    10 ar  
    21     9    25 1   
    22    10    37 1   
    23    11    12 ar  
    24    11    26 1   
    25    12    27 1   
    26    13    14 1   
    27    13    15 1   
    28    13    28 1   
    29    14    29 1   
    30    14    30 1   
    31    14    31 1   
    32    15    16 2   
    33    15    36 1   
    34    17    36 1   
    35    18    32 1   
    36    19    33 1   
    37    19    34 1   
    38    19    35 1   
    39    36    38 1   
@<TRIPOS>SUBSTRUCTURE
     1 N6F         1 TEMP              0 ****  ****    0 ROOT
