@<TRIPOS>MOLECULE
N6F
   38    39     1     0     0
SMALL
No Charge or Current Charge


@<TRIPOS>ATOM
      1 N1           7.8590     0.8660    17.5320 nb         1 N6F      -0.674000
      2 C4           8.4440     0.5080    18.6950 ca         1 N6F       0.368900
      3 C5           6.5670     1.2520    17.5770 ca         1 N6F       0.360900
      4 C6           5.8200     1.2790    18.7620 ca         1 N6F      -0.189000
      5 C7           6.4190     0.8990    19.9800 ca         1 N6F       0.029000
      6 C8           4.3300     0.8760    21.4690 c          1 N6F       0.608100
      7 C10         10.9500    -0.2340    22.7380 ca         1 N6F      -0.070300
      8 C13         13.5660    -0.1740    21.6650 ca         1 N6F      -0.095000
      9 C15         11.4480    -1.3300    21.9970 ca         1 N6F      -0.100000
     10 C14         12.7490    -1.2970    21.4660 ca         1 N6F       0.126000
     11 C12         13.0790     0.9220    22.3960 ca         1 N6F      -0.098000
     12 C11         11.7780     0.8910    22.9270 ca         1 N6F      -0.091000
     13 C1           9.5290    -0.2170    23.3210 c3         1 N6F      -0.098400
     14 C            8.9630    -1.6140    23.6880 c3         1 N6F      -0.088100
     15 C2           8.5640     0.5540    22.4010 c          1 N6F       0.598100
     16 O            7.9250     1.5220    22.7970 o          1 N6F      -0.566100
     17 C3           7.7870     0.5250    19.9430 ca         1 N6F      -0.173000
     18 N2           5.6900     0.8730    21.1990 ns         1 N6F      -0.147000
     19 C9           3.9930     0.9150    22.9560 c3         1 N6F      -0.178100
     20 O1           3.4530     0.8360    20.6140 o          1 N6F      -0.569100
     21 H1           9.4890     0.2040    18.6270 h4         1 N6F       0.026100
     22 H2           6.1150     1.5440    16.6300 h4         1 N6F       0.024100
     23 H3           4.7870     1.6040    18.7070 ha         1 N6F       0.159000
     24 H4          14.5710    -0.1520    21.2520 ha         1 N6F       0.133000
     25 H5          10.8390    -2.2120    21.8200 ha         1 N6F       0.124000
     26 H6          13.7090     1.7960    22.5500 ha         1 N6F       0.122000
     27 H7          11.4130     1.7490    23.4890 ha         1 N6F       0.121000
     28 H8           9.5580     0.3440    24.2640 hc         1 N6F       0.084700
     29 H9           9.6650    -2.1580    24.3320 hc         1 N6F       0.043033
     30 H10          8.0160    -1.5100    24.2320 hc         1 N6F       0.043033
     31 H11          8.7690    -2.2200    22.7950 hc         1 N6F       0.043033
     32 H13          6.2750     0.8900    22.0240 hn         1 N6F       0.157000
     33 H14          2.9140     0.9110    23.1450 hc         1 N6F       0.067033
     34 H15          4.4940     0.0790    23.4570 hc         1 N6F       0.067033
     35 H16          4.4830     1.7840    23.4100 hc         1 N6F       0.067033
     36 N            8.5380     0.1050    21.0850 ns         1 N6F      -0.181000
     37 Cl          13.3530    -2.6670    20.5450 cl         1 N6F      -0.209000
     38 H12          9.1890    -0.6480    20.8980 hn         1 N6F       0.156000
@<TRIPOS>BOND
     1     1     2 ar  
     2     1     3 ar  
     3     2    17 ar  
     4     2    21 1   
     5     3     4 ar  
     6     3    22 1   
     7     4     5 ar  
     8     4    23 1   
     9     5    17 ar  
    10     5    18 1   
    11     6    18 1   
    12     6    19 1   
    13     6    20 2   
    14     7     9 ar  
    15     7    12 ar  
    16     7    13 1   
    17     8    10 ar  
    18     8    11 ar  
    19     8    24 1   
    20     9    10 ar  
    21     9    25 1   
    22    10    37 1   
    23    11    12 ar  
    24    11    26 1   
    25    12    27 1   
    26    13    14 1   
    27    13    15 1   
    28    13    28 1   
    29    14    29 1   
    30    14    30 1   
    31    14    31 1   
    32    15    16 2   
    33    15    36 1   
    34    17    36 1   
    35    18    32 1   
    36    19    33 1   
    37    19    34 1   
    38    19    35 1   
    39    36    38 1   
@<TRIPOS>SUBSTRUCTURE
     1 N6F         1 TEMP              0 ****  ****    0 ROOT
