@<TRIPOS>MOLECULE
N6I
   60    64     1     0     0
SMALL
No Charge or Current Charge


@<TRIPOS>ATOM
      1 C11         12.2420    -0.4870    50.4200 ca         1 N6I      -0.084300
      2 C12         12.9760    -1.6710    50.6530 ca         1 N6I      -0.082000
      3 C13         12.6650    -2.4990    51.7460 ca         1 N6I      -0.110000
      4 C14         11.6130    -2.1560    52.6120 ca         1 N6I      -0.094000
      5 C15         10.8670    -0.9900    52.3770 ca         1 N6I       0.125000
      6 C17         11.1740    -0.1640    51.2840 ca         1 N6I      -0.086000
      7 C18         14.9630     0.3790    52.7310 cc         1 N6I      -0.410800
      8 C19         13.8260     1.0970    53.2650 cc         1 N6I       0.529100
      9 C21         12.2530     1.6270    54.7400 ca         1 N6I      -0.036200
     10 C22         11.3940     1.7130    55.8380 ca         1 N6I      -0.159000
     11 C23         10.2900     2.5880    55.7480 ca         1 N6I       0.299000
     12 C25          8.7410     1.4620    57.3960 c6         1 N6I       0.160800
     13 C26          8.2150     1.6760    58.8480 c6         1 N6I       0.147600
     14 C28          8.0850     4.0580    58.5380 c6         1 N6I       0.147600
     15 C29          8.6020     3.9490    57.0710 c6         1 N6I       0.160800
     16 C02         15.7190    -0.5540    53.5970 c          1 N6I       0.584200
     17 C04         17.1730    -1.0210    51.6940 cc         1 N6I       0.011600
     18 C05         16.4620    -0.1740    50.8820 cd         1 N6I      -0.353000
     19 C06         15.3300     0.5320    51.4020 cd         1 N6I       0.334000
     20 C08         14.1300     0.8240    49.2220 c3         1 N6I       0.191800
     21 C09         12.6080     0.4630    49.2720 c3         1 N6I       0.204600
     22 C30         10.1010     3.3450    54.5620 ca         1 N6I      -0.179000
     23 C31         10.9920     3.2290    53.4680 ca         1 N6I      -0.005300
     24 C32         10.7760     4.0270    52.1900 c3         1 N6I      -0.039800
     25 C33         12.0740     2.3410    53.5960 ca         1 N6I       0.063400
     26 N03         16.7720    -1.1820    53.0000 ns         1 N6I      -0.368100
     27 N20         13.3580     0.8640    54.5500 na         1 N6I      -0.310600
     28 N24          9.3900     2.6940    56.8370 nh         1 N6I      -0.788400
     29 N34         13.0620     2.0350    52.6610 nd         1 N6I      -0.676100
     30 O10         12.1920    -0.1200    48.0260 oh         1 N6I      -0.651000
     31 O27          7.3790     2.8550    58.9260 os         1 N6I      -0.457000
     32 Cl16         9.5520    -0.5550    53.4620 cl         1 N6I      -0.204000
     33 H1          13.7980    -1.9450    49.9960 ha         1 N6I       0.125000
     34 H2          13.2420    -3.4040    51.9240 ha         1 N6I       0.118000
     35 H3          11.3740    -2.7910    53.4610 ha         1 N6I       0.130000
     36 H4          10.5960     0.7420    51.1250 ha         1 N6I       0.141000
     37 H5          11.5740     1.1270    56.7340 ha         1 N6I       0.122000
     38 H7           9.4450     0.6180    57.4070 h1         1 N6I       0.047200
     39 H8           7.6330     0.8000    59.1660 h1         1 N6I       0.052450
     40 H9           9.0630     1.7880    59.5380 h1         1 N6I       0.052450
     41 H10          8.9320     4.2160    59.2210 h1         1 N6I       0.052450
     42 H11          7.4080     4.9190    58.6310 h1         1 N6I       0.052450
     43 H12          9.2230     4.8330    56.8590 h1         1 N6I       0.047200
     44 H13          7.7390     3.9830    56.3910 h1         1 N6I       0.047200
     45 H14         18.0470    -1.6080    51.4170 h4         1 N6I       0.202000
     46 H15         16.7660    -0.0410    49.8490 ha         1 N6I       0.202000
     47 H16         14.6900    -0.0630    48.8970 h1         1 N6I       0.051700
     48 H17         14.2850     1.6010    48.4630 h1         1 N6I       0.051700
     49 H18         12.0620     1.4030    49.4310 h1         1 N6I       0.050700
     50 H19          9.2500     4.0130    54.4770 ha         1 N6I       0.109000
     51 H20         10.6220     3.3600    51.3340 hc         1 N6I       0.042367
     52 H21          9.9000     4.6820    52.2630 hc         1 N6I       0.042367
     53 H22         11.6450     4.6580    51.9720 hc         1 N6I       0.042367
     54 H23         17.2850    -1.8120    53.6060 hn         1 N6I       0.334500
     55 H25         13.7880     0.2120    55.1940 hn         1 N6I       0.395000
     56 H27         12.2590     0.5800    47.3400 ho         1 N6I       0.446000
     57 N07         14.6380     1.3080    50.5260 nu         1 N6I      -0.808200
     58 O01         15.4740    -0.7850    54.7710 o          1 N6I      -0.619000
     59 H6           7.8970     1.1670    56.7550 h1         1 N6I       0.047200
     60 H24         13.9490     1.8590    51.0590 hn         1 N6I       0.557000
@<TRIPOS>BOND
     1     1     2 ar  
     2     1     6 ar  
     3     1    21 1   
     4     2     3 ar  
     5     2    33 1   
     6     3     4 ar  
     7     3    34 1   
     8     4     5 ar  
     9     4    35 1   
    10     5     6 ar  
    11     5    32 1   
    12     6    36 1   
    13     7     8 1   
    14     7    16 1   
    15     7    19 2   
    16     8    27 1   
    17     8    29 2   
    18     9    10 ar  
    19     9    25 ar  
    20     9    27 1   
    21    10    11 ar  
    22    10    37 1   
    23    11    22 ar  
    24    11    28 1   
    25    12    13 1   
    26    12    28 1   
    27    12    38 1   
    28    12    59 1   
    29    13    31 1   
    30    13    39 1   
    31    13    40 1   
    32    14    15 1   
    33    14    31 1   
    34    14    41 1   
    35    14    42 1   
    36    15    28 1   
    37    15    43 1   
    38    15    44 1   
    39    16    26 1   
    40    16    58 2   
    41    17    18 2   
    42    17    26 1   
    43    17    45 1   
    44    18    19 1   
    45    18    46 1   
    46    19    57 1   
    47    20    21 1   
    48    20    47 1   
    49    20    48 1   
    50    20    57 1   
    51    21    30 1   
    52    21    49 1   
    53    22    23 ar  
    54    22    50 1   
    55    23    24 1   
    56    23    25 ar  
    57    24    51 1   
    58    24    52 1   
    59    24    53 1   
    60    25    29 1   
    61    26    54 1   
    62    27    55 1   
    63    30    56 1   
    64    57    60 1   
@<TRIPOS>SUBSTRUCTURE
     1 N6I         1 TEMP              0 ****  ****    0 ROOT
