@<TRIPOS>MOLECULE
N6I
   60    64     1     0     0
SMALL
abcg2


@<TRIPOS>ATOM
      1 C11         12.1790    -0.5260    49.4230 ca         1 N6I      -0.084300
      2 C12         12.3230    -1.7970    48.8670 ca         1 N6I      -0.082000
      3 C13         11.6100    -2.8710    49.3850 ca         1 N6I      -0.110000
      4 C14         10.7530    -2.7000    50.4690 ca         1 N6I      -0.094000
      5 C15         10.6220    -1.4310    51.0120 ca         1 N6I       0.125000
      6 C17         11.3150    -0.3450    50.4990 ca         1 N6I      -0.086000
      7 C18         15.0010     0.3670    53.2430 cc         1 N6I      -0.410800
      8 C19         13.7910     0.9760    53.7580 cc         1 N6I       0.529100
      9 C21         12.2900     1.6630    55.2550 ca         1 N6I      -0.036200
     10 C22         11.5570     1.9940    56.3850 ca         1 N6I      -0.159000
     11 C23         10.3470     2.6740    56.1940 ca         1 N6I       0.299000
     12 C25          9.3770     2.0740    58.3620 c6         1 N6I       0.160800
     13 C26          8.8780     2.7360    59.6320 c6         1 N6I       0.147600
     14 C28          7.9160     4.4760    58.3990 c6         1 N6I       0.147600
     15 C29          8.3900     3.8670    57.0900 c6         1 N6I       0.160800
     16 C02         15.9540    -0.1650    54.1750 c          1 N6I       0.584200
     17 C04         17.3350    -0.8240    52.2970 cc         1 N6I       0.011600
     18 C05         16.4530    -0.3380    51.3920 cd         1 N6I      -0.353000
     19 C06         15.2450     0.2750    51.8460 cd         1 N6I       0.334000
     20 C08         14.4170     0.6130    49.5260 c3         1 N6I       0.191800
     21 C09         12.9990     0.6420    48.9330 c3         1 N6I       0.204600
     22 C30          9.9280     2.9820    54.8770 ca         1 N6I      -0.179000
     23 C31         10.6690     2.6590    53.7430 ca         1 N6I      -0.005300
     24 C32         10.1770     2.9940    52.3650 c3         1 N6I      -0.039800
     25 C33         11.8760     1.9840    53.9450 ca         1 N6I       0.063400
     26 N03         17.0900    -0.7420    53.6240 ns         1 N6I      -0.368100
     27 N20         13.5000     1.0280    55.1010 na         1 N6I      -0.310600
     28 N24          9.5920     3.0750    57.3150 nh         1 N6I      -0.788400
     29 N34         12.8260     1.5450    53.0360 nd         1 N6I      -0.676100
     30 O10         13.0750     0.5880    47.5110 oh         1 N6I      -0.651000
     31 O27          7.6880     3.4850    59.3960 os         1 N6I      -0.457000
     32 CL16         9.5580    -1.1820    52.3840 cl         1 N6I      -0.204000
     33 H1          12.9920    -1.9430    48.0300 ha         1 N6I       0.125000
     34 H2          11.7220    -3.8560    48.9480 ha         1 N6I       0.118000
     35 H3          10.2020    -3.5340    50.8800 ha         1 N6I       0.130000
     36 H4          11.1970     0.6310    50.9440 ha         1 N6I       0.141000
     37 H5          11.9300     1.7640    57.3720 ha         1 N6I       0.122000
     38 H7          10.3060     1.5550    58.5840 h1         1 N6I       0.047200
     39 H8           8.6340     1.9820    60.3800 h1         1 N6I       0.052450
     40 H9           9.6550     3.4000    60.0340 h1         1 N6I       0.052450
     41 H10          8.6640     5.1940    58.7620 h1         1 N6I       0.052450
     42 H11          6.9700     4.9960    58.2490 h1         1 N6I       0.052450
     43 H12          8.6100     4.6800    56.3990 h1         1 N6I       0.047200
     44 H13          7.5810     3.2590    56.6550 h1         1 N6I       0.047200
     45 H14         18.2670    -1.2920    52.0130 h4         1 N6I       0.202000
     46 H15         16.6830    -0.4030    50.3420 ha         1 N6I       0.202000
     47 H16         14.8800    -0.3370    49.2560 h1         1 N6I       0.051700
     48 H17         15.0050     1.4180    49.0690 h1         1 N6I       0.051700
     49 H18         12.5100     1.5700    49.2500 h1         1 N6I       0.050700
     50 H19          8.9860     3.4890    54.7270 ha         1 N6I       0.109000
     51 H20          9.7550     2.1120    51.8760 hc         1 N6I       0.042367
     52 H21          9.3990     3.7570    52.4030 hc         1 N6I       0.042367
     53 H22         10.9900     3.3540    51.7310 hc         1 N6I       0.042367
     54 H23         17.7590    -1.1110    54.2850 hn         1 N6I       0.334500
     55 H25         14.1380     0.6570    55.7940 hn         1 N6I       0.395000
     56 H27         13.5940     1.3440    47.2060 ho         1 N6I       0.446000
     57 N07         14.3570     0.7590    50.9640 nu         1 N6I      -0.808200
     58 O01         15.8530    -0.1580    55.4210 o          1 N6I      -0.619000
     59 H6           8.6430     1.3250    58.0270 h1         1 N6I       0.047200
     60 H24         13.5450     1.2180    51.3830 hn         1 N6I       0.557000
@<TRIPOS>BOND
     1     1     2 ar  
     2     1     6 ar  
     3     1    21 1   
     4     2     3 ar  
     5     2    33 1   
     6     3     4 ar  
     7     3    34 1   
     8     4     5 ar  
     9     4    35 1   
    10     5     6 ar  
    11     5    32 1   
    12     6    36 1   
    13     7     8 1   
    14     7    16 1   
    15     7    19 2   
    16     8    27 1   
    17     8    29 2   
    18     9    10 ar  
    19     9    25 ar  
    20     9    27 1   
    21    10    11 ar  
    22    10    37 1   
    23    11    22 ar  
    24    11    28 1   
    25    12    13 1   
    26    12    28 1   
    27    12    38 1   
    28    12    59 1   
    29    13    31 1   
    30    13    39 1   
    31    13    40 1   
    32    14    15 1   
    33    14    31 1   
    34    14    41 1   
    35    14    42 1   
    36    15    28 1   
    37    15    43 1   
    38    15    44 1   
    39    16    26 1   
    40    16    58 2   
    41    17    18 2   
    42    17    26 1   
    43    17    45 1   
    44    18    19 1   
    45    18    46 1   
    46    19    57 1   
    47    20    21 1   
    48    20    47 1   
    49    20    48 1   
    50    20    57 1   
    51    21    30 1   
    52    21    49 1   
    53    22    23 ar  
    54    22    50 1   
    55    23    24 1   
    56    23    25 ar  
    57    24    51 1   
    58    24    52 1   
    59    24    53 1   
    60    25    29 1   
    61    26    54 1   
    62    27    55 1   
    63    30    56 1   
    64    57    60 1   
@<TRIPOS>SUBSTRUCTURE
     1 N6I         1 TEMP              0 ****  ****    0 ROOT
