@<TRIPOS>MOLECULE
N6J
   40    43     1     0     0
SMALL
No Charge or Current Charge


@<TRIPOS>ATOM
      1 N1          -5.2210    10.1430    32.1970 ns         1 N6J      -0.384100
      2 N3          -3.7760     8.7450    35.1330 na         1 N6J       0.124800
      3 C4          -4.5520    11.1300    31.5000 c          1 N6J       0.672100
      4 C5          -4.8260     9.4750    33.3570 cc         1 N6J      -0.067400
      5 C6          -5.5510     8.4730    34.0250 cc         1 N6J       0.212900
      6 C8          -2.3410     9.8330    36.8520 cc         1 N6J       0.031400
      7 C10         -2.5400    12.7710    38.8080 cc         1 N6J      -0.106000
      8 C13          0.0300    12.3670    37.4690 cd         1 N6J      -0.071000
      9 C15         -3.6780     9.6520    34.0700 cd         1 N6J      -0.146000
     10 N           -5.2530    11.5540    30.4010 ns         1 N6J      -0.496400
     11 O           -3.4640    11.5700    31.8270 o          1 N6J      -0.610100
     12 C1          -3.8420    14.0840    28.3700 cc         1 N6J       0.201300
     13 C11         -1.4900    13.6840    38.9480 cd         1 N6J      -0.141000
     14 C12         -0.2100    13.5080    38.2970 cd         1 N6J      -0.103000
     15 C14         -1.0480    11.4530    37.3420 cd         1 N6J      -0.073000
     16 C2          -3.7480    13.2780    29.4580 cd         1 N6J      -0.242000
     17 C3          -4.9250    12.5070    29.4710 cd         1 N6J       0.430900
     18 C9          -3.0860    10.6410    37.6830 cd         1 N6J      -0.247100
     19 N2          -4.9540     8.0040    35.1020 nd         1 N6J      -0.508800
     20 N4          -2.2380    11.6820    37.9890 na         1 N6J       0.122100
     21 N5          -1.0810    10.3370    36.6430 nc         1 N6J      -0.278600
     22 N6          -5.7260    12.7930    28.4650 nc         1 N6J      -0.438300
     23 O1          -5.0300    13.8260    27.7320 os         1 N6J      -0.091700
     24 H1          -6.1140     9.8830    31.7990 hn         1 N6J       0.322500
     25 H2          -6.5150     8.0680    33.7480 h4         1 N6J       0.035100
     26 H3          -3.2000     7.8820    36.9640 h1         1 N6J       0.073700
     27 H4          -1.9070     8.0370    35.7640 h1         1 N6J       0.073700
     28 H5          -3.5210    12.8330    39.2600 h4         1 N6J       0.145000
     29 H6           0.9790    12.2090    36.9680 ha         1 N6J       0.145000
     30 H7          -2.8310    10.3130    33.9320 h4         1 N6J       0.184000
     31 H8          -6.1390    11.0940    30.2620 hn         1 N6J       0.332500
     32 H9          -2.5960    14.8610    26.8030 hc         1 N6J       0.063367
     33 H10         -3.4040    16.1030    27.7820 hc         1 N6J       0.063367
     34 H11         -2.0150    15.2170    28.4410 hc         1 N6J       0.063367
     35 H12         -1.6430    14.5610    39.5700 ha         1 N6J       0.132000
     36 H13          0.5750    14.2460    38.4360 ha         1 N6J       0.126000
     37 H14         -2.9230    13.2540    30.1550 ha         1 N6J       0.176000
     38 H15         -4.1020    10.5580    38.0520 h4         1 N6J       0.234000
     39 C7          -2.7770     8.5440    36.1990 c3         1 N6J       0.177800
     40 C           -2.9130    15.1240    27.8190 c3         1 N6J      -0.137400
@<TRIPOS>BOND
     1     1     3 1   
     2     1     4 1   
     3     1    24 1   
     4     2     9 1   
     5     2    19 1   
     6     2    39 1   
     7     3    10 1   
     8     3    11 2   
     9     4     5 1   
    10     4     9 2   
    11     5    19 2   
    12     5    25 1   
    13     6    18 2   
    14     6    21 1   
    15     6    39 1   
    16     7    13 2   
    17     7    20 1   
    18     7    28 1   
    19     8    14 2   
    20     8    15 1   
    21     8    29 1   
    22     9    30 1   
    23    10    17 1   
    24    10    31 1   
    25    12    16 2   
    26    12    23 1   
    27    12    40 1   
    28    13    14 1   
    29    13    35 1   
    30    14    36 1   
    31    15    20 1   
    32    15    21 2   
    33    16    17 1   
    34    16    37 1   
    35    17    22 2   
    36    18    20 1   
    37    18    38 1   
    38    22    23 1   
    39    26    39 1   
    40    27    39 1   
    41    32    40 1   
    42    33    40 1   
    43    34    40 1   
@<TRIPOS>SUBSTRUCTURE
     1 N6J         1 TEMP              0 ****  ****    0 ROOT
