@<TRIPOS>MOLECULE
N6J
   40    43     1     0     0
SMALL
abcg2


@<TRIPOS>ATOM
      1 N1          -5.4240    11.1650    32.2800 ns         1 N6J      -0.384100
      2 N3          -3.5840     9.5860    34.8930 na         1 N6J       0.124800
      3 C4          -4.7030    11.6280    31.2210 c          1 N6J       0.672100
      4 C5          -4.8780    10.5260    33.3950 cc         1 N6J      -0.067400
      5 C6          -5.6240    10.0200    34.4790 cc         1 N6J       0.212900
      6 C8          -2.1260    10.0300    36.8170 cc         1 N6J       0.031400
      7 C10         -1.7160    11.1070    40.1660 cc         1 N6J      -0.106000
      8 C13         -1.1370    13.1040    38.2850 cd         1 N6J      -0.071000
      9 C15         -3.5600    10.2310    33.6990 cd         1 N6J      -0.146000
     10 N           -5.4880    12.2010    30.2350 ns         1 N6J      -0.496400
     11 O           -3.4830    11.5480    31.1460 o          1 N6J      -0.610100
     12 C1          -3.8420    13.4360    27.3470 cc         1 N6J       0.201300
     13 C11         -1.3240    12.3420    40.5770 cd         1 N6J      -0.141000
     14 C12         -1.0300    13.3550    39.6260 cd         1 N6J      -0.103000
     15 C14         -1.5450    11.8250    37.8540 cd         1 N6J      -0.073000
     16 C2          -3.6950    12.8430    28.5590 cd         1 N6J      -0.242000
     17 C3          -5.0270    12.7270    29.0490 cd         1 N6J       0.430900
     18 C9          -2.1990     9.7130    38.1510 cd         1 N6J      -0.247100
     19 N2          -4.8250     9.4560    35.3840 nd         1 N6J      -0.508800
     20 N4          -1.8250    10.8550    38.8250 na         1 N6J       0.122100
     21 N5          -1.7240    11.3250    36.6330 nc         1 N6J      -0.278600
     22 N6          -5.9080    13.2120    28.1980 nc         1 N6J      -0.438300
     23 O1          -5.1480    13.6670    27.1060 os         1 N6J      -0.091700
     24 H1          -6.4290    11.2520    32.2660 hn         1 N6J       0.322500
     25 H2          -6.6930    10.0410    34.6210 h4         1 N6J       0.035100
     26 H3          -2.6350     8.1220    36.0150 h1         1 N6J       0.073700
     27 H4          -1.5890     9.0960    34.9740 h1         1 N6J       0.073700
     28 H5          -1.9550    10.2890    40.8310 h4         1 N6J       0.145000
     29 H6          -0.9190    13.8560    37.5400 ha         1 N6J       0.145000
     30 H7          -2.6450    10.4240    33.1720 h4         1 N6J       0.184000
     31 H8          -6.4890    12.2330    30.3650 hn         1 N6J       0.332500
     32 H9          -3.0880    13.3450    25.3590 hc         1 N6J       0.063367
     33 H10         -2.9420    14.9290    26.1270 hc         1 N6J       0.063367
     34 H11         -1.8650    13.6070    26.6170 hc         1 N6J       0.063367
     35 H12         -1.2390    12.5410    41.6360 ha         1 N6J       0.132000
     36 H13         -0.7190    14.3320    39.9710 ha         1 N6J       0.126000
     37 H14         -2.7880    12.5330    29.0390 ha         1 N6J       0.176000
     38 H15         -2.4750     8.8090    38.6660 h4         1 N6J       0.234000
     39 C7          -2.4330     9.1330    35.6620 c3         1 N6J       0.177800
     40 C           -2.8770    13.8530    26.3030 c3         1 N6J      -0.137400
@<TRIPOS>BOND
     1     1     3 1   
     2     1     4 1   
     3     1    24 1   
     4     2     9 1   
     5     2    19 1   
     6     2    39 1   
     7     3    10 1   
     8     3    11 2   
     9     4     5 1   
    10     4     9 2   
    11     5    19 2   
    12     5    25 1   
    13     6    18 2   
    14     6    21 1   
    15     6    39 1   
    16     7    13 2   
    17     7    20 1   
    18     7    28 1   
    19     8    14 2   
    20     8    15 1   
    21     8    29 1   
    22     9    30 1   
    23    10    17 1   
    24    10    31 1   
    25    12    16 2   
    26    12    23 1   
    27    12    40 1   
    28    13    14 1   
    29    13    35 1   
    30    14    36 1   
    31    15    20 1   
    32    15    21 2   
    33    16    17 1   
    34    16    37 1   
    35    17    22 2   
    36    18    20 1   
    37    18    38 1   
    38    22    23 1   
    39    26    39 1   
    40    27    39 1   
    41    32    40 1   
    42    33    40 1   
    43    34    40 1   
@<TRIPOS>SUBSTRUCTURE
     1 N6J         1 TEMP              0 ****  ****    0 ROOT
