@<TRIPOS>MOLECULE
N6K
   29    30     1     0     0
SMALL
No Charge or Current Charge


@<TRIPOS>ATOM
      1 C1           4.9110     7.5320    40.9880 c3         1 N6K      -0.063100
      2 C2           4.0330     8.0030    42.1750 c3         1 N6K      -0.337400
      3 C7           6.8910     9.4800    44.7060 c3         1 N6K       0.295100
      4 C8           7.8240     8.3620    45.1490 ca         1 N6K      -0.174300
      5 C10          8.4110     6.5900    46.7580 ca         1 N6K      -0.135000
      6 C11          9.5430     6.3340    45.9770 ca         1 N6K      -0.023200
      7 C15         11.0490     6.4960    44.3370 cc         1 N6K       0.360800
      8 C16          9.8170     7.0400    44.8520 ca         1 N6K      -0.241900
      9 S3           4.8570     7.9670    43.7750 s6         1 N6K       1.233100
     10 O4           5.5000     6.6690    43.9760 o          1 N6K      -0.545500
     11 O5           3.9520     8.5300    44.7790 o          1 N6K      -0.545500
     12 N6           6.0680     9.0820    43.5550 n7         1 N6K      -0.938300
     13 C9           7.5450     7.6220    46.3320 ca         1 N6K      -0.053000
     14 N12         10.5550     5.4120    46.1340 na         1 N6K      -0.075400
     15 N14         11.5120     5.4990    45.1120 nd         1 N6K      -0.508100
     16 C17          8.9860     8.0710    44.3940 ca         1 N6K      -0.019000
     17 H1           4.3280     7.5460    40.0580 hc         1 N6K       0.048033
     18 H18          5.7790     8.1870    40.8480 hc         1 N6K       0.048033
     19 H19          5.2690     6.5060    41.1440 hc         1 N6K       0.048033
     20 H20          3.7010     9.0360    42.0260 h1         1 N6K       0.095200
     21 H28          3.1550     7.3550    42.2790 h1         1 N6K       0.095200
     22 H22          7.5120    10.3450    44.4330 h1         1 N6K       0.069700
     23 H23          6.2630     9.8050    45.5480 h1         1 N6K       0.069700
     24 H25          8.2030     6.0180    47.6590 ha         1 N6K       0.126000
     25 H26         11.6280     6.7590    43.4620 h4         1 N6K       0.051800
     26 H21          6.6640     8.5730    42.9090 hn         1 N6K       0.490000
     27 H24          6.6550     7.8450    46.9180 ha         1 N6K       0.133000
     28 H13         10.6360     4.7300    46.8880 hn         1 N6K       0.379000
     29 H27          9.2310     8.6270    43.4910 ha         1 N6K       0.116000
@<TRIPOS>BOND
     1     1     2 1   
     2     1    17 1   
     3     1    18 1   
     4     1    19 1   
     5     2     9 1   
     6     2    20 1   
     7     2    21 1   
     8     3     4 1   
     9     3    12 1   
    10     3    22 1   
    11     3    23 1   
    12     4    13 ar  
    13     4    16 ar  
    14     5     6 ar  
    15     5    13 ar  
    16     5    24 1   
    17     6     8 ar  
    18     6    14 1   
    19     7     8 1   
    20     7    15 2   
    21     7    25 1   
    22     8    16 ar  
    23     9    10 2   
    24     9    11 2   
    25     9    12 1   
    26    12    26 1   
    27    13    27 1   
    28    14    15 1   
    29    14    28 1   
    30    16    29 1   
@<TRIPOS>SUBSTRUCTURE
     1 N6K         1 TEMP              0 ****  ****    0 ROOT
