@<TRIPOS>MOLECULE
N6K
   29    30     1     0     0
SMALL
abcg2


@<TRIPOS>ATOM
      1 C1           5.7830     6.5760    42.8100 c3         1 N6K      -0.063100
      2 C2           4.8050     7.6730    42.4290 c3         1 N6K      -0.337400
      3 C7           6.6720     9.4980    45.2190 c3         1 N6K       0.295100
      4 C8           7.6460     8.3480    45.1390 ca         1 N6K      -0.174300
      5 C10          8.2140     6.0640    45.8180 ca         1 N6K      -0.135000
      6 C11          9.3460     6.1620    45.0020 ca         1 N6K      -0.023200
      7 C15         10.8530     7.0350    43.5870 cc         1 N6K       0.360800
      8 C16          9.6370     7.3370    44.2660 ca         1 N6K      -0.241900
      9 S3           4.4570     8.8720    43.7150 s6         1 N6K       1.233100
     10 O4           4.0910     8.1830    44.9360 o          1 N6K      -0.545500
     11 O5           3.5040     9.7960    43.1310 o          1 N6K      -0.545500
     12 N6           5.8190     9.6990    44.0380 n7         1 N6K      -0.938300
     13 C9           7.3840     7.1650    45.8700 ca         1 N6K      -0.053000
     14 N12         10.3530     5.2890    44.7270 na         1 N6K      -0.075400
     15 N14         11.2650     5.8140    43.8720 nd         1 N6K      -0.508100
     16 C17          8.7740     8.4380    44.3460 ca         1 N6K      -0.019000
     17 H1           5.8700     5.8800    41.9740 hc         1 N6K       0.048033
     18 H18          6.7720     6.9770    43.0220 hc         1 N6K       0.048033
     19 H19          5.4380     6.0220    43.6810 hc         1 N6K       0.048033
     20 H20          5.1570     8.2640    41.5810 h1         1 N6K       0.095200
     21 H28          3.8210     7.2720    42.1780 h1         1 N6K       0.095200
     22 H22          7.2100    10.4380    45.3440 h1         1 N6K       0.069700
     23 H23          6.0210     9.3780    46.0810 h1         1 N6K       0.069700
     24 H25          7.9980     5.1660    46.3810 ha         1 N6K       0.126000
     25 H26         11.4240     7.6590    42.9170 h4         1 N6K       0.051800
     26 H21          6.2130    10.1960    43.2510 hn         1 N6K       0.490000
     27 H24          6.4920     7.1240    46.4820 ha         1 N6K       0.133000
     28 H13         10.4770     4.3540    45.0790 hn         1 N6K       0.379000
     29 H27          8.9830     9.3430    43.7870 ha         1 N6K       0.116000
@<TRIPOS>BOND
     1     1     2 1   
     2     1    17 1   
     3     1    18 1   
     4     1    19 1   
     5     2     9 1   
     6     2    20 1   
     7     2    21 1   
     8     3     4 1   
     9     3    12 1   
    10     3    22 1   
    11     3    23 1   
    12     4    13 ar  
    13     4    16 ar  
    14     5     6 ar  
    15     5    13 ar  
    16     5    24 1   
    17     6     8 ar  
    18     6    14 1   
    19     7     8 1   
    20     7    15 2   
    21     7    25 1   
    22     8    16 ar  
    23     9    10 2   
    24     9    11 2   
    25     9    12 1   
    26    12    26 1   
    27    13    27 1   
    28    14    15 1   
    29    14    28 1   
    30    16    29 1   
@<TRIPOS>SUBSTRUCTURE
     1 N6K         1 TEMP              0 ****  ****    0 ROOT
