@<TRIPOS>MOLECULE
N6L
   51    53     1     0     0
SMALL
No Charge or Current Charge


@<TRIPOS>ATOM
      1 C          125.3060   -12.8010   165.1680 ca         1 N6L       0.140000
      2 N          130.9410   -16.1660   164.1050 n          1 N6L      -0.389800
      3 O          128.4370   -15.8540   162.4590 o          1 N6L      -0.585100
      4 Cl         125.3240   -14.3660   165.9820 cl         1 N6L      -0.167000
      5 C1         125.9100   -12.6260   163.9010 ca         1 N6L      -0.096300
      6 O1         129.3040   -17.3730   165.1600 o          1 N6L      -0.620100
      7 Cl1        125.2280    -8.6900   163.1740 cl         1 N6L      -0.205000
      8 C2         126.5970   -13.7800   163.1820 c3         1 N6L       0.151300
      9 N2         127.9550   -13.9810   163.6800 ns         1 N6L      -0.503900
     10 C3         125.8810   -11.3520   163.2960 ca         1 N6L      -0.092000
     11 N3         130.6150   -19.9170   164.1970 n8         1 N6L      -0.980200
     12 C4         125.2560   -10.2720   163.9420 ca         1 N6L       0.115000
     13 C5         124.6550   -10.4520   165.1970 ca         1 N6L      -0.088000
     14 C6         124.6820   -11.7170   165.8100 ca         1 N6L      -0.100000
     15 C7         128.7760   -15.0140   163.2840 c          1 N6L       0.605100
     16 C8         132.3190   -16.0010   163.5920 c5         1 N6L       0.109000
     17 C9         130.1410   -14.9070   164.0390 c5         1 N6L       0.031700
     18 C10        131.0840   -13.9810   163.2120 c5         1 N6L      -0.085400
     19 C11        132.4850   -14.4640   163.6550 c5         1 N6L      -0.095400
     20 C13        131.3170   -18.6720   164.6690 c3         1 N6L       0.095500
     21 C14        131.9310   -18.9240   166.0710 c3         1 N6L      -0.068100
     22 C15        134.6800   -15.7620   167.2140 ca         1 N6L      -0.112000
     23 C16        133.3170   -15.6580   167.5350 ca         1 N6L      -0.112500
     24 C17        132.4290   -16.6880   167.1790 ca         1 N6L      -0.107000
     25 C18        132.8990   -17.8260   166.4950 ca         1 N6L      -0.082300
     26 C19        134.2690   -17.9280   166.1810 ca         1 N6L      -0.107000
     27 C20        135.1560   -16.8990   166.5390 ca         1 N6L      -0.112500
     28 H2         126.0210   -14.7060   163.3130 h1         1 N6L       0.069200
     29 H2A        126.6430   -13.5720   162.1050 h1         1 N6L       0.069200
     30 HN2        128.3200   -13.3310   164.3650 hn         1 N6L       0.312500
     31 H3         126.3440   -11.1960   162.3250 ha         1 N6L       0.129000
     32 HN3A       129.7880   -20.0760   164.7880 hn         1 N6L       0.407000
     33 H5         124.1730    -9.6140   165.6940 ha         1 N6L       0.134000
     34 H6         124.2200   -11.8580   166.7840 ha         1 N6L       0.137000
     35 H8         133.0750   -16.5040   164.2040 h1         1 N6L       0.058200
     36 H8A        132.3960   -16.3750   162.5620 h1         1 N6L       0.058200
     37 H9         129.9730   -14.5150   165.0510 h1         1 N6L       0.064700
     38 H10        130.9500   -14.1260   162.1330 hc         1 N6L       0.060200
     39 H10A       130.9170   -12.9170   163.4200 hc         1 N6L       0.060200
     40 H11        132.7160   -14.1340   164.6750 hc         1 N6L       0.058200
     41 H11A       133.2880   -14.1020   163.0030 hc         1 N6L       0.058200
     42 H13        132.1490   -18.5150   163.9710 h1         1 N6L       0.070700
     43 H14        131.1240   -19.0200   166.8090 hc         1 N6L       0.057200
     44 H14A       132.4560   -19.8880   166.0710 hc         1 N6L       0.057200
     45 H15        135.3670   -14.9650   167.4890 ha         1 N6L       0.113000
     46 H16        132.9470   -14.7790   168.0580 ha         1 N6L       0.113500
     47 H17        131.3740   -16.5940   167.4280 ha         1 N6L       0.117000
     48 H19        134.6450   -18.8000   165.6500 ha         1 N6L       0.117000
     49 H20        136.2120   -16.9810   166.2900 ha         1 N6L       0.113500
     50 C12        130.4330   -17.3610   164.6730 c          1 N6L       0.617100
     51 HN3        131.2060   -20.7370   164.3790 hn         1 N6L       0.407000
@<TRIPOS>BOND
     1     1     4 1   
     2     1     5 ar  
     3     1    14 ar  
     4     2    16 1   
     5     2    17 1   
     6     2    50 1   
     7     3    15 2   
     8     5     8 1   
     9     5    10 ar  
    10     6    50 2   
    11     7    12 1   
    12     8     9 1   
    13     8    28 1   
    14     8    29 1   
    15     9    15 1   
    16     9    30 1   
    17    10    12 ar  
    18    10    31 1   
    19    11    20 1   
    20    11    32 1   
    21    11    51 1   
    22    12    13 ar  
    23    13    14 ar  
    24    13    33 1   
    25    14    34 1   
    26    15    17 1   
    27    16    19 1   
    28    16    35 1   
    29    16    36 1   
    30    17    18 1   
    31    17    37 1   
    32    18    19 1   
    33    18    38 1   
    34    18    39 1   
    35    19    40 1   
    36    19    41 1   
    37    20    21 1   
    38    20    42 1   
    39    20    50 1   
    40    21    25 1   
    41    21    43 1   
    42    21    44 1   
    43    22    23 ar  
    44    22    27 ar  
    45    22    45 1   
    46    23    24 ar  
    47    23    46 1   
    48    24    25 ar  
    49    24    47 1   
    50    25    26 ar  
    51    26    27 ar  
    52    26    48 1   
    53    27    49 1   
@<TRIPOS>SUBSTRUCTURE
     1 N6L         1 TEMP              0 ****  ****    0 ROOT
