@<TRIPOS>MOLECULE
N6L
   51    53     1     0     0
SMALL
abcg2


@<TRIPOS>ATOM
      1 C          125.4800   -13.6390   164.5830 ca         1 N6L       0.140000
      2 N          130.9530   -16.1510   163.9990 n          1 N6L      -0.389800
      3 O          128.8200   -15.4710   162.2510 o          1 N6L      -0.585100
      4 CL         125.7190   -15.3590   164.3780 cl         1 N6L      -0.167000
      5 C1         126.2060   -12.7340   163.8050 ca         1 N6L      -0.096300
      6 O1         129.2330   -16.5030   165.4030 o          1 N6L      -0.620100
      7 CL1        124.7760    -9.2340   165.1630 cl         1 N6L      -0.205000
      8 C2         127.2340   -13.1700   162.7940 c3         1 N6L       0.151300
      9 N2         128.4790   -13.5640   163.4380 ns         1 N6L      -0.503900
     10 C3         125.9700   -11.3740   164.0010 ca         1 N6L      -0.092000
     11 N3         129.6330   -19.2380   165.0930 n8         1 N6L      -0.980200
     12 C4         125.0450   -10.9480   164.9430 ca         1 N6L       0.115000
     13 C5         124.3310   -11.8550   165.7110 ca         1 N6L      -0.088000
     14 C6         124.5530   -13.2130   165.5240 ca         1 N6L      -0.100000
     15 C7         129.1850   -14.6580   163.0950 c          1 N6L       0.605100
     16 C8         132.2280   -16.4590   163.3300 c5         1 N6L       0.109000
     17 C9         130.5450   -14.7640   163.7820 c5         1 N6L       0.031700
     18 C10        131.6560   -14.1800   162.8850 c5         1 N6L      -0.085400
     19 C11        132.8600   -15.0810   163.1620 c5         1 N6L      -0.095400
     20 C13        130.7690   -18.3200   165.1790 c3         1 N6L       0.095500
     21 C14        131.4350   -18.2910   166.5820 c3         1 N6L      -0.068100
     22 C15        134.7910   -15.5880   166.7080 ca         1 N6L      -0.112000
     23 C16        133.5160   -15.1390   167.0390 ca         1 N6L      -0.112500
     24 C17        132.4400   -16.0180   167.0220 ca         1 N6L      -0.107000
     25 C18        132.6140   -17.3600   166.6740 ca         1 N6L      -0.082300
     26 C19        133.9000   -17.8010   166.3540 ca         1 N6L      -0.107000
     27 C20        134.9800   -16.9250   166.3680 ca         1 N6L      -0.112500
     28 H2         126.8830   -14.0260   162.2230 h1         1 N6L       0.069200
     29 H2A        127.4190   -12.3500   162.0970 h1         1 N6L       0.069200
     30 HN2        128.8650   -12.9390   164.1290 hn         1 N6L       0.312500
     31 H3         126.5160   -10.6510   163.4110 ha         1 N6L       0.129000
     32 HN3A       128.9030   -18.9150   165.7210 hn         1 N6L       0.407000
     33 H5         123.6110   -11.5140   166.4410 ha         1 N6L       0.134000
     34 H6         124.0020   -13.9370   166.1080 ha         1 N6L       0.137000
     35 H8         132.8380   -17.1230   163.9310 h1         1 N6L       0.058200
     36 H8A        132.0370   -16.9280   162.3610 h1         1 N6L       0.058200
     37 H9         130.5110   -14.2510   164.7460 h1         1 N6L       0.064700
     38 H10        131.3620   -14.2620   161.8370 hc         1 N6L       0.060200
     39 H10A       131.8350   -13.1300   163.1090 hc         1 N6L       0.060200
     40 H11        133.3480   -14.7900   164.0930 hc         1 N6L       0.058200
     41 H11A       133.5970   -15.0610   162.3610 hc         1 N6L       0.058200
     42 H13        131.5090   -18.6390   164.4480 h1         1 N6L       0.070700
     43 H14        130.6690   -18.0050   167.3050 hc         1 N6L       0.057200
     44 H14A       131.7450   -19.3140   166.8090 hc         1 N6L       0.057200
     45 H15        135.6300   -14.9040   166.7180 ha         1 N6L       0.113000
     46 H16        133.3590   -14.1010   167.3060 ha         1 N6L       0.113500
     47 H17        131.4490   -15.6590   167.2730 ha         1 N6L       0.117000
     48 H19        134.0520   -18.8400   166.0840 ha         1 N6L       0.117000
     49 H20        135.9690   -17.2850   166.1140 ha         1 N6L       0.113500
     50 C12        130.2570   -16.9200   164.8500 c          1 N6L       0.617100
     51 HN3        129.9170   -20.1560   165.4190 hn         1 N6L       0.407000
@<TRIPOS>BOND
     1     1     4 1   
     2     1     5 ar  
     3     1    14 ar  
     4     2    16 1   
     5     2    17 1   
     6     2    50 1   
     7     3    15 2   
     8     5     8 1   
     9     5    10 ar  
    10     6    50 2   
    11     7    12 1   
    12     8     9 1   
    13     8    28 1   
    14     8    29 1   
    15     9    15 1   
    16     9    30 1   
    17    10    12 ar  
    18    10    31 1   
    19    11    20 1   
    20    11    32 1   
    21    11    51 1   
    22    12    13 ar  
    23    13    14 ar  
    24    13    33 1   
    25    14    34 1   
    26    15    17 1   
    27    16    19 1   
    28    16    35 1   
    29    16    36 1   
    30    17    18 1   
    31    17    37 1   
    32    18    19 1   
    33    18    38 1   
    34    18    39 1   
    35    19    40 1   
    36    19    41 1   
    37    20    21 1   
    38    20    42 1   
    39    20    50 1   
    40    21    25 1   
    41    21    43 1   
    42    21    44 1   
    43    22    23 ar  
    44    22    27 ar  
    45    22    45 1   
    46    23    24 ar  
    47    23    46 1   
    48    24    25 ar  
    49    24    47 1   
    50    25    26 ar  
    51    26    27 ar  
    52    26    48 1   
    53    27    49 1   
@<TRIPOS>SUBSTRUCTURE
     1 N6L         1 TEMP              0 ****  ****    0 ROOT
