@<TRIPOS>MOLECULE
N6M
   18    19     1     0     0
SMALL
bcc


@<TRIPOS>ATOM
      1 C6           0.9860    -0.1430     0.0070 ca         1 N6M       0.774200
      2 C5          -0.3820    -0.4820     0.0010 ca         1 N6M      -0.233200
      3 C4          -1.2780     0.5780     0.0070 ca         1 N6M       0.452800
      4 C2           0.3390     2.0650     0.0210 ca         1 N6M       0.708900
      5 C8          -2.3030    -1.3540    -0.0130 cc         1 N6M       0.397700
      6 C11          3.3570    -0.7470     0.0020 c3         1 N6M       0.223100
      7 N6           1.9510    -1.0650     0.0070 nu         1 N6M      -0.857900
      8 N1           1.3110     1.1530     0.0160 nb         1 N6M      -0.824000
      9 N3          -0.9680     1.8750     0.0180 nb         1 N6M      -0.747000
     10 N9          -2.5060    -0.0080    -0.0020 na         1 N6M      -0.362000
     11 N7          -1.0430    -1.6830    -0.0120 nd         1 N6M      -0.553100
     12 H9          -3.3990     0.4600    -0.0030 hn         1 N6M       0.318700
     13 H8          -3.1310    -2.0460    -0.0230 h5         1 N6M       0.065800
     14 H6           1.6760    -2.0320    -0.0100 hn         1 N6M       0.459800
     15 H111         3.6550    -0.2250    -0.9090 h1         1 N6M       0.043367
     16 H112         3.6320    -0.1240     0.8540 h1         1 N6M       0.043367
     17 H113         3.9150    -1.6770     0.0620 h1         1 N6M       0.043367
     18 H2           0.6720     3.0970     0.0290 h5         1 N6M       0.046100
@<TRIPOS>BOND
     1     1     2 ar  
     2     1     7 1   
     3     1     8 ar  
     4     2     3 ar  
     5     2    11 1   
     6     3     9 ar  
     7     3    10 1   
     8     4     8 ar  
     9     4     9 ar  
    10     4    18 1   
    11     5    10 1   
    12     5    11 2   
    13     5    13 1   
    14     6     7 1   
    15     6    15 1   
    16     6    16 1   
    17     6    17 1   
    18     7    14 1   
    19    10    12 1   
@<TRIPOS>SUBSTRUCTURE
     1 N6M         1 TEMP              0 ****  ****    0 ROOT
