@<TRIPOS>MOLECULE
N6M
   18    19     1     0     0
SMALL
No Charge or Current Charge


@<TRIPOS>ATOM
      1 C6           0.9630    -0.0540     0.0040 ca         1 N6M       0.445900
      2 C5          -0.4030    -0.4090     0.0000 ca         1 N6M      -0.102600
      3 C4          -1.3340     0.5970     0.0020 ca         1 N6M       0.124500
      4 C2           0.3330     2.1550     0.0100 ca         1 N6M       0.182900
      5 C8          -2.3150    -1.4110    -0.0070 cc         1 N6M       0.397700
      6 C11          3.4180    -0.8220     0.0070 c3         1 N6M       0.223100
      7 N6           1.9580    -1.0260     0.0030 nu         1 N6M      -0.913100
      8 N1           1.3350     1.2420     0.0090 nb         1 N6M      -0.298000
      9 N3          -0.9980     1.8990     0.0070 nb         1 N6M      -0.221000
     10 N9          -2.5380    -0.0360    -0.0030 na         1 N6M      -0.412300
     11 N7          -0.9950    -1.6790    -0.0050 nd         1 N6M      -0.553100
     12 H9          -3.4450     0.4090    -0.0030 hn         1 N6M       0.369000
     13 H8          -3.1220    -2.1350    -0.0110 h5         1 N6M       0.065800
     14 H6           1.6020    -1.9840    -0.0010 hn         1 N6M       0.515000
     15 H111         3.7310    -0.2560    -0.8810 h1         1 N6M       0.043367
     16 H112         3.7260    -0.2640     0.9020 h1         1 N6M       0.043367
     17 H113         3.9410    -1.7870     0.0050 h1         1 N6M       0.043367
     18 H2           0.6270     3.2030     0.0140 h5         1 N6M       0.046100
@<TRIPOS>BOND
     1     1     2 ar  
     2     1     7 1   
     3     1     8 ar  
     4     2     3 ar  
     5     2    11 1   
     6     3     9 ar  
     7     3    10 1   
     8     4     8 ar  
     9     4     9 ar  
    10     4    18 1   
    11     5    10 1   
    12     5    11 2   
    13     5    13 1   
    14     6     7 1   
    15     6    15 1   
    16     6    16 1   
    17     6    17 1   
    18     7    14 1   
    19    10    12 1   
@<TRIPOS>SUBSTRUCTURE
     1 N6M         1 TEMP              0 ****  ****    0 ROOT
