@<TRIPOS>MOLECULE
N6N
   19    20     1     0     0
SMALL
abcg2


@<TRIPOS>ATOM
      1 C1          -1.5360   -26.5980   -51.3920 ca         1 N6N      -0.015900
      2 N1           1.5640   -24.0740   -54.1410 nc         1 N6N      -0.482300
      3 S1           1.3260   -25.5270   -57.7550 s          1 N6N      -0.594400
      4 C2          -0.9140   -26.3560   -52.6060 ca         1 N6N      -0.066000
      5 N2           1.9030   -24.1590   -55.4570 ns         1 N6N      -0.281400
      6 C3          -0.0360   -25.2740   -52.7150 ca         1 N6N      -0.122900
      7 N3           0.4100   -25.6310   -55.1670 ns         1 N6N      -0.457900
      8 C4           0.1990   -24.4570   -51.6040 ca         1 N6N      -0.055000
      9 C5          -0.4340   -24.7230   -50.4010 ca         1 N6N      -0.110000
     10 C6          -1.3100   -25.7990   -50.2810 ca         1 N6N      -0.061000
     11 C7           0.6420   -24.9860   -53.9770 cd         1 N6N       0.414500
     12 C8           1.2190   -25.1040   -56.1340 cs         1 N6N       0.386400
     13 BR1         -2.7360   -28.0810   -51.2490 br         1 N6N      -0.089100
     14 H2          -1.1090   -27.0090   -53.4440 ha         1 N6N       0.127000
     15 H3           2.6060   -23.5480   -55.8440 hn         1 N6N       0.508000
     16 H4          -0.2510   -26.3700   -55.3460 hn         1 N6N       0.491000
     17 H5           0.8740   -23.6170   -51.6920 ha         1 N6N       0.141000
     18 H6          -0.2510   -24.0890   -49.5440 ha         1 N6N       0.129000
     19 H7          -1.8040   -26.0060   -49.3420 ha         1 N6N       0.138000
@<TRIPOS>BOND
     1     1     4 ar  
     2     1    10 ar  
     3     1    13 1   
     4     2     5 1   
     5     2    11 2   
     6     3    12 2   
     7     4     6 ar  
     8     4    14 1   
     9     5    12 1   
    10     5    15 1   
    11     6     8 ar  
    12     6    11 1   
    13     7    11 1   
    14     7    12 1   
    15     7    16 1   
    16     8     9 ar  
    17     8    17 1   
    18     9    10 ar  
    19     9    18 1   
    20    10    19 1   
@<TRIPOS>SUBSTRUCTURE
     1 N6N         1 TEMP              0 ****  ****    0 ROOT
