@<TRIPOS>MOLECULE
N6N
   19    20     1     0     0
SMALL
No Charge or Current Charge


@<TRIPOS>ATOM
      1 C1          -1.5850   -26.6010   -51.3890 ca         1 N6N      -0.015900
      2 N1           1.5140   -23.9790   -54.1800 nc         1 N6N      -0.482300
      3 S1           1.4090   -25.5870   -57.7390 s          1 N6N      -0.594400
      4 C2          -0.9470   -26.3310   -52.6120 ca         1 N6N      -0.066000
      5 N2           1.8530   -24.1090   -55.4840 ns         1 N6N      -0.281400
      6 C3          -0.0310   -25.2590   -52.7240 ca         1 N6N      -0.122900
      7 N3           0.4650   -25.6740   -55.1770 ns         1 N6N      -0.457900
      8 C4           0.2270   -24.4690   -51.5790 ca         1 N6N      -0.055000
      9 C5          -0.4130   -24.7430   -50.3570 ca         1 N6N      -0.110000
     10 C6          -1.3210   -25.8090   -50.2600 ca         1 N6N      -0.061000
     11 C7           0.6480   -24.9640   -54.0050 cd         1 N6N       0.414500
     12 C8           1.2480   -25.1220   -56.1480 cs         1 N6N       0.386400
     13 Br1         -2.8210   -28.0550   -51.2610 br         1 N6N      -0.089100
     14 H2          -1.1740   -26.9630   -53.4670 ha         1 N6N       0.127000
     15 H3           2.5200   -23.4880   -55.9530 hn         1 N6N       0.508000
     16 H4          -0.1380   -26.4720   -55.3260 hn         1 N6N       0.491000
     17 H5           0.9270   -23.6370   -51.6300 ha         1 N6N       0.141000
     18 H6          -0.2050   -24.1260   -49.4850 ha         1 N6N       0.129000
     19 H7          -1.8160   -26.0210   -49.3150 ha         1 N6N       0.138000
@<TRIPOS>BOND
     1     1     4 ar  
     2     1    10 ar  
     3     1    13 1   
     4     2     5 1   
     5     2    11 2   
     6     3    12 2   
     7     4     6 ar  
     8     4    14 1   
     9     5    12 1   
    10     5    15 1   
    11     6     8 ar  
    12     6    11 1   
    13     7    11 1   
    14     7    12 1   
    15     7    16 1   
    16     8     9 ar  
    17     8    17 1   
    18     9    10 ar  
    19     9    18 1   
    20    10    19 1   
@<TRIPOS>SUBSTRUCTURE
     1 N6N         1 TEMP              0 ****  ****    0 ROOT
