@<TRIPOS>MOLECULE
N6O
   43    45     1     0     0
SMALL
bcc


@<TRIPOS>ATOM
      1 N1          -0.5390   -11.4070    32.0580 ns         1 N6O      -0.577900
      2 C7          -1.6540    -7.3240    31.5600 ca         1 N6O       0.027400
      3 C8          -1.2770    -8.6510    31.4460 ca         1 N6O      -0.114000
      4 N2          -4.0160   -13.3260    33.5060 na         1 N6O       0.008400
      5 C9          -0.8700   -11.5670    33.3570 c          1 N6O       0.723700
      6 O1           2.3420   -12.5080    30.8310 o          1 N6O      -0.586100
      7 C1           0.8500   -10.7480    30.1830 c3         1 N6O      -0.178400
      8 C5           0.5210    -6.7340    32.3390 ca         1 N6O      -0.117000
      9 C6          -0.7700    -6.3520    32.0040 ca         1 N6O      -0.117000
     10 N3          -3.5560   -13.6870    34.6970 nc         1 N6O      -0.515800
     11 C4           0.9120    -8.0610    32.2330 ca         1 N6O      -0.105000
     12 C3           0.0180    -9.0270    31.7860 ca         1 N6O      -0.091300
     13 C2           0.4720   -10.4630    31.6330 c3         1 N6O       0.178000
     14 N            1.1790   -12.7770    28.9180 nt         1 N6O      -0.680000
     15 O           -0.2570   -11.0230    34.2630 o          1 N6O      -0.578100
     16 C10         -2.0430   -12.4200    33.6120 cd         1 N6O      -0.310900
     17 C12         -2.3570   -13.1420    34.7890 cd         1 N6O       0.429800
     18 C11         -3.1590   -12.5730    32.8130 cc         1 N6O      -0.118300
     19 C13         -1.5690   -13.3410    36.0110 ca         1 N6O      -0.161500
     20 C18         -0.2390   -13.7330    35.9740 ca         1 N6O       0.174900
     21 F            0.3440   -13.9270    34.7820 f          1 N6O      -0.134900
     22 C17          0.5070   -13.9630    37.1120 ca         1 N6O      -0.175000
     23 C16         -0.0980   -13.8020    38.3510 ca         1 N6O      -0.093000
     24 C15         -1.4310   -13.4200    38.4290 ca         1 N6O      -0.154000
     25 C14         -2.1550   -13.1950    37.2690 ca         1 N6O      -0.072000
     26 H1          -1.0600   -11.9030    31.3520 hn         1 N6O       0.307500
     27 H2          -1.9910    -9.3890    31.1030 ha         1 N6O       0.136000
     28 H3          -4.9340   -13.6240    33.2140 hn         1 N6O       0.325700
     29 H4           1.5600    -9.9850    29.8540 hc         1 N6O       0.065700
     30 H5          -0.0270   -10.6530    29.5370 hc         1 N6O       0.065700
     31 H6           1.2210    -5.9890    32.6920 ha         1 N6O       0.139000
     32 H7          -1.0810    -5.3200    32.0900 ha         1 N6O       0.147000
     33 H8           1.9210    -8.3500    32.5050 ha         1 N6O       0.143000
     34 H9           1.3620   -10.6030    32.2500 h1         1 N6O       0.103700
     35 H10          1.6230   -13.6540    28.6970 hn         1 N6O       0.313000
     36 H11          0.5110   -12.4180    28.2580 hn         1 N6O       0.313000
     37 H12         -3.4040   -12.1820    31.8380 h4         1 N6O       0.171000
     38 H13          1.5410   -14.2720    37.0280 ha         1 N6O       0.151000
     39 H14          0.4750   -13.9780    39.2510 ha         1 N6O       0.133000
     40 H15         -1.9060   -13.2950    39.3920 ha         1 N6O       0.135000
     41 H16         -3.1920   -12.8910    37.3300 ha         1 N6O       0.140000
     42 C            1.5260   -12.0980    30.0190 c          1 N6O       0.669100
     43 CL          -3.2740    -6.8680    31.1370 cl         1 N6O      -0.120400
@<TRIPOS>BOND
     1     1     5 1   
     2     1    13 1   
     3     1    26 1   
     4     2     3 ar  
     5     2     9 ar  
     6     2    43 1   
     7     3    12 ar  
     8     3    27 1   
     9     4    10 1   
    10     4    18 1   
    11     4    28 1   
    12     5    15 2   
    13     5    16 1   
    14     6    42 2   
    15     7    13 1   
    16     7    29 1   
    17     7    30 1   
    18     7    42 1   
    19     8     9 ar  
    20     8    11 ar  
    21     8    31 1   
    22     9    32 1   
    23    10    17 2   
    24    11    12 ar  
    25    11    33 1   
    26    12    13 1   
    27    13    34 1   
    28    14    35 1   
    29    14    36 1   
    30    14    42 1   
    31    16    17 1   
    32    16    18 2   
    33    17    19 1   
    34    18    37 1   
    35    19    20 ar  
    36    19    25 ar  
    37    20    21 1   
    38    20    22 ar  
    39    22    23 ar  
    40    22    38 1   
    41    23    24 ar  
    42    23    39 1   
    43    24    25 ar  
    44    24    40 1   
    45    25    41 1   
@<TRIPOS>SUBSTRUCTURE
     1 N6O         1 TEMP              0 ****  ****    0 ROOT
