@<TRIPOS>MOLECULE
N6O
   43    45     1     0     0
SMALL
No Charge or Current Charge


@<TRIPOS>ATOM
      1 N1          -0.8220   -10.7320    32.4500 ns         1 N6O      -0.510900
      2 C7          -1.4970    -7.0920    30.1000 ca         1 N6O       0.119000
      3 C8          -1.0610    -8.3800    30.4520 ca         1 N6O      -0.096000
      4 N2          -4.1680   -12.8250    33.8030 na         1 N6O       0.008800
      5 C9          -0.7770   -11.5700    33.5390 c          1 N6O       0.656700
      6 O1           2.7700   -11.9930    31.7870 o          1 N6O      -0.586100
      7 C1           1.0090   -10.6850    30.7700 c3         1 N6O      -0.178400
      8 C5          -0.1750    -6.1440    31.9060 ca         1 N6O      -0.099000
      9 C6          -1.0550    -5.9730    30.8240 ca         1 N6O      -0.099000
     10 N3          -3.6210   -13.5450    34.8510 nc         1 N6O      -0.515800
     11 C4           0.2620    -7.4330    32.2610 ca         1 N6O      -0.087000
     12 C3          -0.1730    -8.5610    31.5350 ca         1 N6O      -0.091300
     13 C2           0.3050    -9.9560    31.9350 c3         1 N6O       0.178000
     14 N            1.0300   -13.1240    30.9660 nt         1 N6O      -0.613000
     15 O            0.2370   -11.7220    34.2020 o          1 N6O      -0.578100
     16 C10         -2.0700   -12.2380    33.8190 cd         1 N6O      -0.245600
     17 C12         -2.3480   -13.1900    34.8270 cd         1 N6O       0.364500
     18 C11         -3.2470   -12.0170    33.1430 cc         1 N6O      -0.151000
     19 C13         -1.4130   -13.7600    35.8020 ca         1 N6O      -0.161500
     20 C18         -0.3180   -14.5360    35.3750 ca         1 N6O       0.210000
     21 F           -0.1240   -14.7770    34.0580 f          1 N6O      -0.170000
     22 C17          0.5680   -15.0970    36.3100 ca         1 N6O      -0.157000
     23 C16          0.3620   -14.8920    37.6850 ca         1 N6O      -0.075000
     24 C15         -0.7380   -14.1340    38.1190 ca         1 N6O      -0.136000
     25 C14         -1.6270   -13.5750    37.1830 ca         1 N6O      -0.054000
     26 H1          -1.7140   -10.6490    31.9820 hn         1 N6O       0.307500
     27 H2          -1.4180    -9.2340    29.8830 ha         1 N6O       0.118000
     28 H3          -5.1590   -12.9040    33.5750 hn         1 N6O       0.376000
     29 H4           1.7760   -10.0170    30.3620 hc         1 N6O       0.065700
     30 H5           0.2620   -10.9150    30.0030 hc         1 N6O       0.065700
     31 H6           0.1670    -5.2790    32.4700 ha         1 N6O       0.121000
     32 H7          -1.3950    -4.9780    30.5480 ha         1 N6O       0.129000
     33 H8           0.9420    -7.5500    33.1030 ha         1 N6O       0.125000
     34 H9           1.0420    -9.8370    32.7430 h1         1 N6O       0.103700
     35 H10          1.4380   -14.0010    31.2520 hn         1 N6O       0.313000
     36 H11          0.1360   -13.1010    30.5000 hn         1 N6O       0.313000
     37 H12         -3.5150   -11.3770    32.3090 h4         1 N6O       0.153000
     38 H13          1.4080   -15.6940    35.9660 ha         1 N6O       0.133000
     39 H14          1.0470   -15.3260    38.4100 ha         1 N6O       0.115000
     40 H15         -0.9050   -13.9810    39.1840 ha         1 N6O       0.117000
     41 H16         -2.4780   -12.9910    37.5300 ha         1 N6O       0.122000
     42 C            1.6850   -11.9730    31.2330 c          1 N6O       0.602100
     43 Cl          -2.6020    -6.8810    28.7490 cl         1 N6O      -0.212000
@<TRIPOS>BOND
     1     1     5 1   
     2     1    13 1   
     3     1    26 1   
     4     2     3 ar  
     5     2     9 ar  
     6     2    43 1   
     7     3    12 ar  
     8     3    27 1   
     9     4    10 1   
    10     4    18 1   
    11     4    28 1   
    12     5    15 2   
    13     5    16 1   
    14     6    42 2   
    15     7    13 1   
    16     7    29 1   
    17     7    30 1   
    18     7    42 1   
    19     8     9 ar  
    20     8    11 ar  
    21     8    31 1   
    22     9    32 1   
    23    10    17 2   
    24    11    12 ar  
    25    11    33 1   
    26    12    13 1   
    27    13    34 1   
    28    14    35 1   
    29    14    36 1   
    30    14    42 1   
    31    16    17 1   
    32    16    18 2   
    33    17    19 1   
    34    18    37 1   
    35    19    20 ar  
    36    19    25 ar  
    37    20    21 1   
    38    20    22 ar  
    39    22    23 ar  
    40    22    38 1   
    41    23    24 ar  
    42    23    39 1   
    43    24    25 ar  
    44    24    40 1   
    45    25    41 1   
@<TRIPOS>SUBSTRUCTURE
     1 N6O         1 TEMP              0 ****  ****    0 ROOT
