@<TRIPOS>MOLECULE
N6Q
   28    27     1     0     0
SMALL
bcc


@<TRIPOS>ATOM
      1 C1          35.0670    27.9060    79.8940 c2         1 N6Q      -0.210000
      2 C2          33.7970    27.6510    80.2020 ce         1 N6Q      -0.135000
      3 C3          32.6190    28.1490    79.4720 ce         1 N6Q      -0.083200
      4 C4          32.6150    28.2430    78.1410 c2         1 N6Q      -0.212000
      5 C5          31.4600    28.5470    80.3530 c3         1 N6Q      -0.037200
      6 C6          30.1180    28.7830    79.6700 c3         1 N6Q      -0.070400
      7 C7          29.4590    27.5060    79.1570 c3         1 N6Q      -0.074400
      8 C8          28.0360    27.6970    78.6290 c3         1 N6Q      -0.061700
      9 C9          27.9900    28.6360    77.4270 c3         1 N6Q      -0.087100
     10 C10         27.4190    26.3480    78.2710 c3         1 N6Q      -0.087100
     11 H1          35.3400    28.5370    79.0560 ha         1 N6Q       0.113000
     12 H2          35.8790    27.4980    80.4810 ha         1 N6Q       0.113000
     13 H3          33.5870    27.0520    81.0850 ha         1 N6Q       0.119000
     14 H4          33.4670    27.9260    77.5520 ha         1 N6Q       0.115000
     15 H5          31.7660    28.6280    77.5900 ha         1 N6Q       0.115000
     16 H6          31.7540    29.4530    80.8960 hc         1 N6Q       0.045700
     17 H7          31.3410    27.7820    81.1280 hc         1 N6Q       0.045700
     18 H8          30.2390    29.5120    78.8640 hc         1 N6Q       0.039200
     19 H9          29.4480    29.2540    80.3950 hc         1 N6Q       0.039200
     20 H10         29.4320    26.7800    79.9770 hc         1 N6Q       0.040200
     21 H11         30.0710    27.0500    78.3710 hc         1 N6Q       0.040200
     22 H12         27.4370    28.1430    79.4320 hc         1 N6Q       0.042700
     23 H13         28.3520    29.6360    77.6680 hc         1 N6Q       0.031533
     24 H14         28.6050    28.2490    76.6100 hc         1 N6Q       0.031533
     25 H15         26.9710    28.7410    77.0480 hc         1 N6Q       0.031533
     26 H16         27.4320    25.6640    79.1210 hc         1 N6Q       0.031533
     27 H17         26.3820    26.4560    77.9470 hc         1 N6Q       0.031533
     28 H18         27.9720    25.8740    77.4560 hc         1 N6Q       0.031533
@<TRIPOS>BOND
     1     1     2 2   
     2     1    11 1   
     3     1    12 1   
     4     2     3 1   
     5     2    13 1   
     6     3     4 2   
     7     3     5 1   
     8     4    14 1   
     9     4    15 1   
    10     5     6 1   
    11     5    16 1   
    12     5    17 1   
    13     6     7 1   
    14     6    18 1   
    15     6    19 1   
    16     7     8 1   
    17     7    20 1   
    18     7    21 1   
    19     8     9 1   
    20     8    10 1   
    21     8    22 1   
    22     9    23 1   
    23     9    24 1   
    24     9    25 1   
    25    10    26 1   
    26    10    27 1   
    27    10    28 1   
@<TRIPOS>SUBSTRUCTURE
     1 N6Q         1 TEMP              0 ****  ****    0 ROOT
