@<TRIPOS>MOLECULE
N6Q
   28    27     1     0     0
SMALL
No Charge or Current Charge


@<TRIPOS>ATOM
      1 C1          34.4890    27.0210    79.7710 c2         1 N6Q      -0.310000
      2 C2          33.1660    27.2820    79.7070 ce         1 N6Q      -0.185000
      3 C3          32.6100    28.5890    79.3400 ce         1 N6Q      -0.083200
      4 C4          33.0670    29.2740    78.2720 c2         1 N6Q      -0.312000
      5 C5          31.4950    29.1290    80.2230 c3         1 N6Q      -0.037200
      6 C6          30.0950    29.0620    79.5700 c3         1 N6Q      -0.070400
      7 C7          29.6160    27.6200    79.2640 c3         1 N6Q      -0.074400
      8 C8          28.1580    27.5150    78.7400 c3         1 N6Q      -0.061700
      9 C9          27.9450    28.2520    77.3950 c3         1 N6Q      -0.087100
     10 C10         27.7170    26.0380    78.6290 c3         1 N6Q      -0.087100
     11 H1          35.2370    27.7690    79.5070 ha         1 N6Q       0.163000
     12 H2          34.8640    26.0480    80.0940 ha         1 N6Q       0.163000
     13 H3          32.4490    26.5240    80.0300 ha         1 N6Q       0.169000
     14 H4          33.8620    28.8840    77.6370 ha         1 N6Q       0.165000
     15 H5          32.6560    30.2460    77.9960 ha         1 N6Q       0.165000
     16 H6          31.7060    30.1740    80.4810 hc         1 N6Q       0.045700
     17 H7          31.4650    28.5910    81.1790 hc         1 N6Q       0.045700
     18 H8          30.1100    29.6530    78.6470 hc         1 N6Q       0.039200
     19 H9          29.3730    29.5420    80.2420 hc         1 N6Q       0.039200
     20 H10         29.7020    27.0270    80.1830 hc         1 N6Q       0.040200
     21 H11         30.2930    27.1630    78.5320 hc         1 N6Q       0.040200
     22 H12         27.5030    27.9900    79.4810 hc         1 N6Q       0.042700
     23 H13         28.1140    29.3290    77.5010 hc         1 N6Q       0.031533
     24 H14         28.6280    27.8680    76.6270 hc         1 N6Q       0.031533
     25 H15         26.9180    28.1140    77.0380 hc         1 N6Q       0.031533
     26 H16         27.8110    25.5300    79.5970 hc         1 N6Q       0.031533
     27 H17         26.6700    25.9670    78.3130 hc         1 N6Q       0.031533
     28 H18         28.3340    25.5000    77.8980 hc         1 N6Q       0.031533
@<TRIPOS>BOND
     1     1     2 2   
     2     1    11 1   
     3     1    12 1   
     4     2     3 1   
     5     2    13 1   
     6     3     4 2   
     7     3     5 1   
     8     4    14 1   
     9     4    15 1   
    10     5     6 1   
    11     5    16 1   
    12     5    17 1   
    13     6     7 1   
    14     6    18 1   
    15     6    19 1   
    16     7     8 1   
    17     7    20 1   
    18     7    21 1   
    19     8     9 1   
    20     8    10 1   
    21     8    22 1   
    22     9    23 1   
    23     9    24 1   
    24     9    25 1   
    25    10    26 1   
    26    10    27 1   
    27    10    28 1   
@<TRIPOS>SUBSTRUCTURE
     1 N6Q         1 TEMP              0 ****  ****    0 ROOT
