@<TRIPOS>MOLECULE
N6R
   53    57     1     0     0
SMALL
abcg2


@<TRIPOS>ATOM
      1 C5H          5.9120     0.4120     1.0640 ca         1 N6R      -0.100000
      2 C5F          5.3980     0.0920     2.3120 ca         1 N6R      -0.109000
      3 C5E          4.5030    -0.9610     2.4490 ca         1 N6R      -0.109000
      4 C5G          4.1410    -1.6990     1.3300 ca         1 N6R      -0.109000
      5 C5I          4.6640    -1.3790     0.0850 ca         1 N6R      -0.100000
      6 C5U          5.5460    -0.3120    -0.0680 ca         1 N6R      -0.083300
      7 C5M          6.0130     0.1110    -1.4300 c3         1 N6R      -0.054100
      8 C5Y          5.0820     1.1670    -2.0540 c3         1 N6R       0.229500
      9 C5A          5.5570     1.5760    -3.4400 c3         1 N6R      -0.102100
     10 N6           3.7200     0.6710    -2.1290 nu         1 N6R      -0.896100
     11 C6           2.7940     0.8290    -1.1760 ca         1 N6R       0.459900
     12 N1           2.9560     1.7440    -0.2140 nb         1 N6R      -0.286000
     13 C2           2.0350     1.8700     0.7300 ca         1 N6R       0.200900
     14 N3           0.9080     1.1900     0.8700 nb         1 N6R      -0.270000
     15 C4           0.7470     0.2930    -0.1060 ca         1 N6R       0.122500
     16 C5           1.6150     0.0580    -1.1560 ca         1 N6R      -0.092600
     17 N7           1.1450    -0.9500    -1.9550 nc         1 N6R      -0.555100
     18 C8           0.0240    -1.3120    -1.4000 cd         1 N6R       0.421700
     19 N9          -0.2790    -0.5880    -0.2790 na         1 N6R      -0.308300
     20 C1S         -1.3770    -0.7760     0.6560 c5         1 N6R       0.262300
     21 O4S         -2.3590    -1.5900     0.0690 os         1 N6R      -0.429000
     22 C4S         -3.5370    -0.8230    -0.0680 c5         1 N6R       0.062300
     23 C5S         -4.8130    -1.6360    -0.0440 c6         1 N6R       0.220600
     24 O5S         -5.8890    -0.6810    -0.0880 os         1 N6R      -0.605400
     25 P5          -5.9760     0.5700     0.9110 p5         1 N6R       1.357200
     26 O5D         -6.9280     1.5820     0.4350 o          1 N6R      -0.517000
     27 O5B         -6.2050    -0.0290     2.3710 oh         1 N6R      -0.762400
     28 O3S         -4.4700     1.1150     1.0520 os         1 N6R      -0.528400
     29 C3S         -3.4760     0.1040     1.1330 c5         1 N6R       0.154300
     30 C2S         -2.0450     0.5770     1.0430 c5         1 N6R       0.166300
     31 O2S         -1.5700     1.1260     2.2240 oh         1 N6R      -0.700000
     32 H5H          6.6020     1.2430     0.9660 ha         1 N6R       0.110500
     33 H5F          5.6930     0.6690     3.1800 ha         1 N6R       0.112000
     34 H5E          4.0950    -1.2070     3.4210 ha         1 N6R       0.112000
     35 H5G          3.4480    -2.5260     1.4260 ha         1 N6R       0.112000
     36 H5I          4.3720    -1.9620    -0.7820 ha         1 N6R       0.110500
     37 H5M          7.0180     0.5350    -1.3770 hc         1 N6R       0.053700
     38 H5MA         6.0660    -0.7520    -2.1020 hc         1 N6R       0.053700
     39 H5Y          5.0690     2.0430    -1.4060 h1         1 N6R       0.092700
     40 H5A          5.5340     0.7300    -4.1300 hc         1 N6R       0.045367
     41 H5AA         4.9310     2.3680    -3.8490 hc         1 N6R       0.045367
     42 H5AB         6.5830     1.9420    -3.3970 hc         1 N6R       0.045367
     43 HN6          3.5530    -0.0760    -2.7880 hn         1 N6R       0.503000
     44 H2           2.2300     2.6270     1.4820 h5         1 N6R       0.048100
     45 H8          -0.6250    -2.0920    -1.7670 h5         1 N6R       0.077800
     46 H1S         -0.9870    -1.2700     1.5520 h2         1 N6R       0.100700
     47 H4S         -3.5150    -0.2330    -0.9950 h1         1 N6R       0.084700
     48 H5S         -4.9250    -2.2730    -0.9190 h1         1 N6R       0.073200
     49 H5SA        -4.8790    -2.2530     0.8560 h1         1 N6R       0.073200
     50 HO5B        -7.0740    -0.4300     2.5170 ho         1 N6R       0.489000
     51 H3S         -3.5990    -0.4740     2.0590 h1         1 N6R       0.083700
     52 H2S         -1.9550     1.2710     0.1940 h1         1 N6R       0.072700
     53 HO2S        -0.6420     1.3720     2.0470 ho         1 N6R       0.559000
@<TRIPOS>BOND
     1     1     2 ar  
     2     1     6 ar  
     3     1    32 1   
     4     2     3 ar  
     5     2    33 1   
     6     3     4 ar  
     7     3    34 1   
     8     4     5 ar  
     9     4    35 1   
    10     5     6 ar  
    11     5    36 1   
    12     6     7 1   
    13     7     8 1   
    14     7    37 1   
    15     7    38 1   
    16     8     9 1   
    17     8    10 1   
    18     8    39 1   
    19     9    40 1   
    20     9    41 1   
    21     9    42 1   
    22    10    11 1   
    23    10    43 1   
    24    11    12 ar  
    25    11    16 ar  
    26    12    13 ar  
    27    13    14 ar  
    28    13    44 1   
    29    14    15 ar  
    30    15    16 ar  
    31    15    19 1   
    32    16    17 1   
    33    17    18 2   
    34    18    19 1   
    35    18    45 1   
    36    19    20 1   
    37    20    21 1   
    38    20    30 1   
    39    20    46 1   
    40    21    22 1   
    41    22    23 1   
    42    22    29 1   
    43    22    47 1   
    44    23    24 1   
    45    23    48 1   
    46    23    49 1   
    47    24    25 1   
    48    25    26 2   
    49    25    27 1   
    50    25    28 1   
    51    27    50 1   
    52    28    29 1   
    53    29    30 1   
    54    29    51 1   
    55    30    31 1   
    56    30    52 1   
    57    31    53 1   
@<TRIPOS>SUBSTRUCTURE
     1 N6R         1 TEMP              0 ****  ****    0 ROOT
