@<TRIPOS>MOLECULE
N6R
   53    57     1     0     0
SMALL
No Charge or Current Charge


@<TRIPOS>ATOM
      1 C5H          5.8530     0.3300     0.9190 ca         1 N6R      -0.100000
      2 C5F          5.4300     0.1240     2.2430 ca         1 N6R      -0.109000
      3 C5E          4.4590    -0.8500     2.5290 ca         1 N6R      -0.109000
      4 C5G          3.9150    -1.6230     1.4890 ca         1 N6R      -0.109000
      5 C5I          4.3410    -1.4210     0.1650 ca         1 N6R      -0.100000
      6 C5U          5.3080    -0.4380    -0.1290 ca         1 N6R      -0.083300
      7 C5M          5.7380    -0.1840    -1.5730 c3         1 N6R      -0.054100
      8 C5Y          5.1390     1.1130    -2.1830 c3         1 N6R       0.229500
      9 C5A          5.6840     1.3890    -3.5970 c3         1 N6R      -0.102100
     10 N6           3.6710     1.0290    -2.2530 nu         1 N6R      -0.896100
     11 C6           2.8050     1.1670    -1.1730 ca         1 N6R       0.459900
     12 N1           3.1140     2.0600    -0.2130 nb         1 N6R      -0.286000
     13 C2           2.2690     2.1160     0.8410 ca         1 N6R       0.200900
     14 N3           1.1530     1.3710     1.0240 nb         1 N6R      -0.270000
     15 C4           0.8660     0.4900     0.0460 ca         1 N6R       0.122500
     16 C5           1.6560     0.3550    -1.0660 ca         1 N6R      -0.092600
     17 N7           1.1870    -0.6200    -1.9390 nc         1 N6R      -0.555100
     18 C8           0.0870    -1.0600    -1.2990 cd         1 N6R       0.421700
     19 N9          -0.1640    -0.4070    -0.0760 na         1 N6R      -0.308300
     20 C1S         -1.2530    -0.6690     0.8640 c5         1 N6R       0.262300
     21 O4S         -2.2030    -1.6020     0.2700 os         1 N6R      -0.429000
     22 C4S         -3.3860    -0.8390    -0.0140 c5         1 N6R       0.062300
     23 C5S         -4.6570    -1.6560    -0.3140 c6         1 N6R       0.220600
     24 O5S         -5.7860    -0.7500    -0.3810 os         1 N6R      -0.605400
     25 P5          -6.0380     0.3060     0.8190 p5         1 N6R       1.357200
     26 O5D         -7.1630     1.2510     0.6050 o          1 N6R      -0.517000
     27 O5B         -6.2330    -0.6660     2.0620 oh         1 N6R      -0.762400
     28 O3S         -4.5690     0.9540     1.0550 os         1 N6R      -0.528400
     29 C3S         -3.5180    -0.0190     1.2740 c5         1 N6R       0.154300
     30 C2S         -2.0970     0.6040     1.2970 c5         1 N6R       0.166300
     31 O2S         -1.7350     1.1350     2.5870 oh         1 N6R      -0.700000
     32 H5H          6.5980     1.0930     0.7050 ha         1 N6R       0.110500
     33 H5F          5.8510     0.7240     3.0470 ha         1 N6R       0.112000
     34 H5E          4.1280    -1.0060     3.5530 ha         1 N6R       0.112000
     35 H5G          3.1610    -2.3760     1.7080 ha         1 N6R       0.112000
     36 H5I          3.9050    -2.0150    -0.6340 ha         1 N6R       0.110500
     37 H5M          6.8320    -0.1160    -1.6130 hc         1 N6R       0.053700
     38 H5MA         5.4690    -1.0380    -2.2070 hc         1 N6R       0.053700
     39 H5Y          5.4370     1.9620    -1.5500 h1         1 N6R       0.092700
     40 H5A          5.4330     0.5710    -4.2840 hc         1 N6R       0.045367
     41 H5AA         5.2650     2.3190    -3.9980 hc         1 N6R       0.045367
     42 H5AB         6.7760     1.4930    -3.5730 hc         1 N6R       0.045367
     43 HN6          3.3020     0.3520    -2.9200 hn         1 N6R       0.503000
     44 H2           2.5120     2.8320     1.6240 h5         1 N6R       0.048100
     45 H8          -0.5700    -1.8430    -1.6590 h5         1 N6R       0.077800
     46 H1S         -0.7910    -1.1400     1.7410 h2         1 N6R       0.100700
     47 H4S         -3.1890    -0.1920    -0.8830 h1         1 N6R       0.084700
     48 H5S         -4.5530    -2.1790    -1.2760 h1         1 N6R       0.073200
     49 H5SA        -4.8290    -2.4080     0.4710 h1         1 N6R       0.073200
     50 HO5B        -7.2040    -0.7160     2.0030 ho         1 N6R       0.489000
     51 H3S         -3.7150    -0.6380     2.1620 h1         1 N6R       0.083700
     52 H2S         -2.0210     1.3870     0.5270 h1         1 N6R       0.072700
     53 HO2S        -0.8410     1.5450     2.4880 ho         1 N6R       0.559000
@<TRIPOS>BOND
     1     1     2 ar  
     2     1     6 ar  
     3     1    32 1   
     4     2     3 ar  
     5     2    33 1   
     6     3     4 ar  
     7     3    34 1   
     8     4     5 ar  
     9     4    35 1   
    10     5     6 ar  
    11     5    36 1   
    12     6     7 1   
    13     7     8 1   
    14     7    37 1   
    15     7    38 1   
    16     8     9 1   
    17     8    10 1   
    18     8    39 1   
    19     9    40 1   
    20     9    41 1   
    21     9    42 1   
    22    10    11 1   
    23    10    43 1   
    24    11    12 ar  
    25    11    16 ar  
    26    12    13 ar  
    27    13    14 ar  
    28    13    44 1   
    29    14    15 ar  
    30    15    16 ar  
    31    15    19 1   
    32    16    17 1   
    33    17    18 2   
    34    18    19 1   
    35    18    45 1   
    36    19    20 1   
    37    20    21 1   
    38    20    30 1   
    39    20    46 1   
    40    21    22 1   
    41    22    23 1   
    42    22    29 1   
    43    22    47 1   
    44    23    24 1   
    45    23    48 1   
    46    23    49 1   
    47    24    25 1   
    48    25    26 2   
    49    25    27 1   
    50    25    28 1   
    51    27    50 1   
    52    28    29 1   
    53    29    30 1   
    54    29    51 1   
    55    30    31 1   
    56    30    52 1   
    57    31    53 1   
@<TRIPOS>SUBSTRUCTURE
     1 N6R         1 TEMP              0 ****  ****    0 ROOT
