@<TRIPOS>MOLECULE
N6S
   53    57     1     0     0
SMALL
abcg2


@<TRIPOS>ATOM
      1 C5H          4.9340     1.4240     1.2760 ca         1 N6S      -0.100500
      2 C5F          3.9420     2.1190     1.9520 ca         1 N6S      -0.110000
      3 C5E          2.7760     2.4860     1.2930 ca         1 N6S      -0.108000
      4 C5G          2.6180     2.1670    -0.0480 ca         1 N6S      -0.110000
      5 C5I          3.6170     1.4780    -0.7230 ca         1 N6S      -0.100500
      6 C5U          4.7820     1.0880    -0.0680 ca         1 N6S      -0.084300
      7 C5M          5.8080     0.2380    -0.7600 c3         1 N6S      -0.055100
      8 C5Y          5.5470    -1.2660    -0.5500 c3         1 N6S       0.230500
      9 C5A          6.5820    -2.1120    -1.2760 c3         1 N6S      -0.102100
     10 N6           4.2160    -1.6200    -1.0090 nu         1 N6S      -0.896100
     11 C6           3.1120    -1.5880    -0.2520 ca         1 N6S       0.459900
     12 N1           3.1990    -1.5750     1.0810 nb         1 N6S      -0.286000
     13 C2           2.0920    -1.5200     1.8080 ca         1 N6S       0.199900
     14 N3           0.8370    -1.4820     1.3860 nb         1 N6S      -0.269000
     15 C4           0.7620    -1.5130     0.0530 ca         1 N6S       0.122500
     16 C5           1.8260    -1.5820    -0.8270 ca         1 N6S      -0.093600
     17 N7           1.3830    -1.5700    -2.1230 nc         1 N6S      -0.556100
     18 C8           0.0870    -1.5040    -2.0250 cd         1 N6S       0.421700
     19 N9          -0.3520    -1.4540    -0.7300 na         1 N6S      -0.309300
     20 C1S         -1.7180    -1.4560    -0.2310 c5         1 N6S       0.263300
     21 O4S         -2.5990    -1.1550    -1.2820 os         1 N6S      -0.428000
     22 C4S         -3.2150     0.0830    -0.9920 c5         1 N6S       0.063300
     23 C5S         -4.5840     0.2600    -1.6120 c6         1 N6S       0.221600
     24 O5S         -5.0870     1.5060    -1.0990 os         1 N6S      -0.597400
     25 P5          -5.1720     1.7720     0.4840 p5         1 N6S       1.356200
     26 O5D         -5.0570     3.3470     0.5680 oh         1 N6S      -0.724400
     27 O5B         -6.3100     1.1270     1.1630 o          1 N6S      -0.560000
     28 O3S         -3.7150     1.3280     1.0240 os         1 N6S      -0.536400
     29 C3S         -3.3180     0.0600     0.5220 c5         1 N6S       0.148300
     30 C2S         -1.9230    -0.3890     0.8870 c5         1 N6S       0.166300
     31 O2S         -1.8240    -0.8900     2.1760 oh         1 N6S      -0.699000
     32 H5H          5.8350     1.1280     1.8010 ha         1 N6S       0.110500
     33 H5F          4.0790     2.3720     2.9960 ha         1 N6S       0.112000
     34 H5E          1.9970     3.0220     1.8210 ha         1 N6S       0.114000
     35 H5G          1.7130     2.4530    -0.5700 ha         1 N6S       0.112000
     36 H5I          3.4800     1.2270    -1.7680 ha         1 N6S       0.110500
     37 H5M          5.8170     0.4460    -1.8340 hc         1 N6S       0.053200
     38 H5MA         6.8080     0.4650    -0.3840 hc         1 N6S       0.053200
     39 H5Y          5.5880    -1.4830     0.5180 h1         1 N6S       0.092700
     40 H5A          6.5300    -1.9560    -2.3560 hc         1 N6S       0.045033
     41 H5AA         7.5870    -1.8450    -0.9500 hc         1 N6S       0.045033
     42 H5AB         6.4310    -3.1720    -1.0770 hc         1 N6S       0.045033
     43 HN6          4.0650    -1.5820    -2.0060 hn         1 N6S       0.502000
     44 H2           2.2320    -1.5050     2.8830 h5         1 N6S       0.048100
     45 H8          -0.5980    -1.4820    -2.8580 h5         1 N6S       0.077800
     46 H1S         -1.9460    -2.4540     0.1540 h2         1 N6S       0.103700
     47 H4S         -2.5800     0.9210    -1.3110 h1         1 N6S       0.082700
     48 H5S         -4.5470     0.3610    -2.6950 h1         1 N6S       0.077200
     49 H5SA        -5.2530    -0.5670    -1.3580 h1         1 N6S       0.077200
     50 HO5D        -5.8380     3.7760     0.9430 ho         1 N6S       0.493000
     51 H3S         -4.0330    -0.7130     0.8370 h1         1 N6S       0.086700
     52 H2S         -1.2290     0.4470     0.7140 h1         1 N6S       0.070700
     53 HO2S        -0.8870    -1.1380     2.2920 ho         1 N6S       0.558000
@<TRIPOS>BOND
     1     1     2 ar  
     2     1     6 ar  
     3     1    32 1   
     4     2     3 ar  
     5     2    33 1   
     6     3     4 ar  
     7     3    34 1   
     8     4     5 ar  
     9     4    35 1   
    10     5     6 ar  
    11     5    36 1   
    12     6     7 1   
    13     7     8 1   
    14     7    37 1   
    15     7    38 1   
    16     8     9 1   
    17     8    10 1   
    18     8    39 1   
    19     9    40 1   
    20     9    41 1   
    21     9    42 1   
    22    10    11 1   
    23    10    43 1   
    24    11    12 ar  
    25    11    16 ar  
    26    12    13 ar  
    27    13    14 ar  
    28    13    44 1   
    29    14    15 ar  
    30    15    16 ar  
    31    15    19 1   
    32    16    17 1   
    33    17    18 2   
    34    18    19 1   
    35    18    45 1   
    36    19    20 1   
    37    20    21 1   
    38    20    30 1   
    39    20    46 1   
    40    21    22 1   
    41    22    23 1   
    42    22    29 1   
    43    22    47 1   
    44    23    24 1   
    45    23    48 1   
    46    23    49 1   
    47    24    25 1   
    48    25    26 1   
    49    25    27 2   
    50    25    28 1   
    51    26    50 1   
    52    28    29 1   
    53    29    30 1   
    54    29    51 1   
    55    30    31 1   
    56    30    52 1   
    57    31    53 1   
@<TRIPOS>SUBSTRUCTURE
     1 N6S         1 TEMP              0 ****  ****    0 ROOT
