@<TRIPOS>MOLECULE
N6S
   53    57     1     0     0
SMALL
No Charge or Current Charge


@<TRIPOS>ATOM
      1 C5H          4.3140     1.3370     1.0880 ca         1 N6S      -0.100500
      2 C5F          3.2860     1.8500     1.8980 ca         1 N6S      -0.110000
      3 C5E          2.0130     2.0900     1.3540 ca         1 N6S      -0.108000
      4 C5G          1.7710     1.8230    -0.0030 ca         1 N6S      -0.110000
      5 C5I          2.7990     1.3130    -0.8140 ca         1 N6S      -0.100500
      6 C5U          4.0750     1.0570    -0.2720 ca         1 N6S      -0.084300
      7 C5M          5.1770     0.4480    -1.1400 c3         1 N6S      -0.055100
      8 C5Y          5.5100    -1.0300    -0.7910 c3         1 N6S       0.230500
      9 C5A          6.6580    -1.5820    -1.6580 c3         1 N6S      -0.102100
     10 N6           4.3280    -1.8890    -0.9690 nu         1 N6S      -0.896100
     11 C6           3.2510    -1.9310    -0.0910 ca         1 N6S       0.459900
     12 N1           3.5050    -1.9320     1.2320 nb         1 N6S      -0.286000
     13 C2           2.4260    -1.8850     2.0440 ca         1 N6S       0.199900
     14 N3           1.1280    -1.8240     1.6620 nb         1 N6S      -0.269000
     15 C4           0.9050    -1.8250     0.3330 ca         1 N6S       0.122500
     16 C5           1.9270    -1.8930    -0.5770 ca         1 N6S      -0.093600
     17 N7           1.4750    -1.8740    -1.8920 nc         1 N6S      -0.556100
     18 C8           0.1420    -1.7880    -1.7250 cd         1 N6S       0.421700
     19 N9          -0.2640    -1.7370    -0.3770 na         1 N6S      -0.309300
     20 C1S         -1.6240    -1.5700     0.1330 c5         1 N6S       0.263300
     21 O4S         -2.5280    -1.2640    -0.9700 os         1 N6S      -0.428000
     22 C4S         -2.8570     0.1260    -0.8350 c5         1 N6S       0.063300
     23 C5S         -4.0450     0.6320    -1.6840 c6         1 N6S       0.221600
     24 O5S         -4.3930     1.9640    -1.2310 os         1 N6S      -0.597400
     25 P5          -4.6920     2.1560     0.3410 p5         1 N6S       1.356200
     26 O5D         -4.4620     3.7180     0.4460 oh         1 N6S      -0.724400
     27 O5B         -5.9820     1.6340     0.8610 o          1 N6S      -0.560000
     28 O3S         -3.3270     1.5970     0.9980 os         1 N6S      -0.536400
     29 C3S         -3.1430     0.1990     0.6720 c5         1 N6S       0.148300
     30 C2S         -1.8080    -0.3970     1.1920 c5         1 N6S       0.166300
     31 O2S         -1.8910    -0.8480     2.5570 oh         1 N6S      -0.699000
     32 H5H          5.2930     1.1430     1.5210 ha         1 N6S       0.110500
     33 H5F          3.4760     2.0570     2.9490 ha         1 N6S       0.112000
     34 H5E          1.2170     2.4840     1.9830 ha         1 N6S       0.114000
     35 H5G          0.7860     2.0070    -0.4270 ha         1 N6S       0.112000
     36 H5I          2.5960     1.0950    -1.8600 ha         1 N6S       0.110500
     37 H5M          4.9030     0.5120    -2.2010 hc         1 N6S       0.053200
     38 H5MA         6.0890     1.0460    -1.0310 hc         1 N6S       0.053200
     39 H5Y          5.8480    -1.0690     0.2560 h1         1 N6S       0.092700
     40 H5A          6.3940    -1.5640    -2.7220 hc         1 N6S       0.045033
     41 H5AA         7.5650    -0.9810    -1.5200 hc         1 N6S       0.045033
     42 H5AB         6.8920    -2.6150    -1.3760 hc         1 N6S       0.045033
     43 HN6          3.9920    -1.9590    -1.9290 hn         1 N6S       0.502000
     44 H2           2.6200    -1.8840     3.1150 h5         1 N6S       0.048100
     45 H8          -0.5830    -1.7430    -2.5300 h5         1 N6S       0.077800
     46 H1S         -1.9070    -2.5350     0.5730 h2         1 N6S       0.103700
     47 H4S         -1.9750     0.7270    -1.1050 h1         1 N6S       0.082700
     48 H5S         -3.7660     0.6690    -2.7470 h1         1 N6S       0.077200
     49 H5SA        -4.9130    -0.0360    -1.5770 h1         1 N6S       0.077200
     50 HO5D        -3.7070     3.6950    -0.1690 ho         1 N6S       0.493000
     51 H3S         -4.0140    -0.4040     0.9750 h1         1 N6S       0.086700
     52 H2S         -1.0020     0.3440     1.0810 h1         1 N6S       0.070700
     53 HO2S        -0.9840    -1.1390     2.8180 ho         1 N6S       0.558000
@<TRIPOS>BOND
     1     1     2 ar  
     2     1     6 ar  
     3     1    32 1   
     4     2     3 ar  
     5     2    33 1   
     6     3     4 ar  
     7     3    34 1   
     8     4     5 ar  
     9     4    35 1   
    10     5     6 ar  
    11     5    36 1   
    12     6     7 1   
    13     7     8 1   
    14     7    37 1   
    15     7    38 1   
    16     8     9 1   
    17     8    10 1   
    18     8    39 1   
    19     9    40 1   
    20     9    41 1   
    21     9    42 1   
    22    10    11 1   
    23    10    43 1   
    24    11    12 ar  
    25    11    16 ar  
    26    12    13 ar  
    27    13    14 ar  
    28    13    44 1   
    29    14    15 ar  
    30    15    16 ar  
    31    15    19 1   
    32    16    17 1   
    33    17    18 2   
    34    18    19 1   
    35    18    45 1   
    36    19    20 1   
    37    20    21 1   
    38    20    30 1   
    39    20    46 1   
    40    21    22 1   
    41    22    23 1   
    42    22    29 1   
    43    22    47 1   
    44    23    24 1   
    45    23    48 1   
    46    23    49 1   
    47    24    25 1   
    48    25    26 1   
    49    25    27 2   
    50    25    28 1   
    51    26    50 1   
    52    28    29 1   
    53    29    30 1   
    54    29    51 1   
    55    30    31 1   
    56    30    52 1   
    57    31    53 1   
@<TRIPOS>SUBSTRUCTURE
     1 N6S         1 TEMP              0 ****  ****    0 ROOT
