@<TRIPOS>MOLECULE
N6T
   45    46     1     0     0
SMALL
No Charge or Current Charge


@<TRIPOS>ATOM
      1 O4          -8.0350    -0.5420     1.9050 o          1 N6T      -0.616000
      2 C4          -7.0410    -0.5140     1.1980 c          1 N6T       0.582200
      3 C5          -6.7870    -1.4210     0.0570 cc         1 N6T      -0.329400
      4 C7          -7.8580    -2.4440    -0.2300 c3         1 N6T       0.012100
      5 C6          -5.6220    -1.3010    -0.6700 cd         1 N6T      -0.056400
      6 N3          -6.0570     0.3930     1.4160 ns         1 N6T      -0.471500
      7 C2          -4.8940     0.5650     0.7310 c          1 N6T       0.619000
      8 O2          -4.1380     1.4680     1.0500 o          1 N6T      -0.550000
      9 N1          -4.6750    -0.3310    -0.3430 n          1 N6T      -0.297000
     10 C1          -3.4100    -0.2890    -1.1250 c5         1 N6T       0.349700
     11 C10         -3.5230     0.8630    -2.1740 c5         1 N6T      -0.155400
     12 C3          -2.3500     1.7970    -1.7650 c5         1 N6T       0.120300
     13 O3          -1.8230     2.5040    -2.8920 oh         1 N6T      -0.699000
     14 O6          -2.2440    -0.0190    -0.3290 os         1 N6T      -0.396000
     15 C8          -1.3580     0.7600    -1.1570 c5         1 N6T       0.164300
     16 C9          -0.2080     1.3850    -0.3110 c3         1 N6T       0.239600
     17 O5           0.9890     0.5870    -0.3440 os         1 N6T      -0.573400
     18 PA           1.0230    -0.9420     0.1610 p5         1 N6T       1.415400
     19 O1A          0.3920    -1.8670    -0.8280 o          1 N6T      -0.854000
     20 O2A          0.4790    -1.1600     1.5340 o          1 N6T      -0.854000
     21 C3A          2.7540    -1.3180     0.1030 c3         1 N6T      -0.763400
     22 PB           3.5830    -0.1230     1.1250 p5         1 N6T       1.429300
     23 O1B          4.8090    -0.8250     1.5920 o          1 N6T      -0.876000
     24 O2B          2.7840     0.5400     2.1930 o          1 N6T      -0.876000
     25 N3B          4.1100     0.8250    -0.0490 n7         1 N6T      -0.943600
     26 PG           4.6200     2.2970     0.2810 p5         1 N6T       1.279800
     27 O2G          5.4820     2.2850     1.4870 o          1 N6T      -0.901833
     28 O1G          5.4320     2.6530    -0.9090 o          1 N6T      -0.901833
     29 O3G          3.4580     3.2120     0.4180 o          1 N6T      -0.901833
     30 H1          -8.8150    -1.9590    -0.4590 hc         1 N6T       0.018367
     31 H2          -7.5890    -3.0700    -1.0890 hc         1 N6T       0.018367
     32 H3          -8.0090    -3.1080     0.6300 hc         1 N6T       0.018367
     33 H4          -5.3580    -1.9280    -1.5190 h4         1 N6T       0.184000
     34 H5          -6.2100     1.0300     2.1800 hn         1 N6T       0.321500
     35 H6          -3.2980    -1.2580    -1.6270 h2         1 N6T       0.037700
     36 H7          -3.3930     0.4610    -3.1850 hc         1 N6T       0.038200
     37 H8          -4.4890     1.3820    -2.1550 hc         1 N6T       0.038200
     38 H9          -2.6730     2.5020    -0.9840 h1         1 N6T       0.070700
     39 H10         -2.5550     3.0530    -3.2560 ho         1 N6T       0.472000
     40 H11         -0.9370     0.1260    -1.9490 h1         1 N6T       0.065700
     41 H12          0.0180     2.3800    -0.7160 h1         1 N6T       0.019700
     42 H13         -0.5520     1.5280     0.7220 h1         1 N6T       0.019700
     43 H15          2.9020    -2.3170     0.5190 hc         1 N6T       0.045700
     44 H16          3.1050    -1.3040    -0.9310 hc         1 N6T       0.045700
     45 H18          4.9960     0.3580    -0.0930 hn         1 N6T       0.387000
@<TRIPOS>BOND
     1     1     2 2   
     2     2     3 1   
     3     2     6 1   
     4     3     4 1   
     5     3     5 2   
     6     4    30 1   
     7     4    31 1   
     8     4    32 1   
     9     5     9 1   
    10     5    33 1   
    11     6     7 1   
    12     6    34 1   
    13     7     8 2   
    14     7     9 1   
    15     9    10 1   
    16    10    11 1   
    17    10    14 1   
    18    10    35 1   
    19    11    12 1   
    20    11    36 1   
    21    11    37 1   
    22    12    13 1   
    23    12    15 1   
    24    12    38 1   
    25    13    39 1   
    26    14    15 1   
    27    15    16 1   
    28    15    40 1   
    29    16    17 1   
    30    16    41 1   
    31    16    42 1   
    32    17    18 1   
    33    18    19 1   
    34    18    20 1   
    35    18    21 1   
    36    21    22 1   
    37    21    43 1   
    38    21    44 1   
    39    22    23 1   
    40    22    24 1   
    41    22    25 1   
    42    25    26 1   
    43    25    45 1   
    44    26    27 1   
    45    26    28 1   
    46    26    29 1   
@<TRIPOS>SUBSTRUCTURE
     1 N6T         1 TEMP              0 ****  ****    0 ROOT
