@<TRIPOS>MOLECULE
N6T
   45    46     1     0     0
SMALL
abcg2


@<TRIPOS>ATOM
      1 O4          -6.6550    -3.3970     0.9050 o          1 N6T      -0.616000
      2 C4          -6.1130    -2.4280     0.4050 c          1 N6T       0.582200
      3 C5          -6.0020    -2.1760    -1.0170 cc         1 N6T      -0.329400
      4 C7          -6.5890    -3.1590    -1.9750 c3         1 N6T       0.012100
      5 C6          -5.3700    -1.0560    -1.4080 cd         1 N6T      -0.056400
      6 N3          -5.5330    -1.4570     1.2020 ns         1 N6T      -0.471500
      7 C2          -4.8910    -0.3110     0.8090 c          1 N6T       0.619000
      8 O2          -4.4240     0.4690     1.6120 o          1 N6T      -0.550000
      9 N1          -4.8340    -0.1290    -0.5530 n          1 N6T      -0.297000
     10 C1          -4.1460     1.0360    -1.1080 c5         1 N6T       0.349700
     11 C10         -4.6480     2.4050    -0.6370 c5         1 N6T      -0.155400
     12 C3          -3.4790     2.9990     0.1490 c5         1 N6T       0.120300
     13 O3          -3.2640     4.3720    -0.0660 oh         1 N6T      -0.699000
     14 O6          -2.7850     0.9560    -0.8000 os         1 N6T      -0.396000
     15 C8          -2.2820     2.2190    -0.3950 c5         1 N6T       0.164300
     16 C9          -1.1830     2.0330     0.6220 c3         1 N6T       0.239600
     17 O5          -0.0960     1.3660     0.0290 os         1 N6T      -0.573400
     18 PA           1.3570     1.3820     0.8690 p5         1 N6T       1.415400
     19 O1A          1.0610     0.9230     2.2750 o          1 N6T      -0.854000
     20 O2A          1.9820     2.7370     0.6630 o          1 N6T      -0.854000
     21 C3A          2.2080     0.1040    -0.1010 c3         1 N6T      -0.763400
     22 PB           4.0460     0.1110     0.1180 p5         1 N6T       1.429300
     23 O1B          4.2990     0.2170     1.6100 o          1 N6T      -0.876000
     24 O2B          4.6460     1.1540    -0.7960 o          1 N6T      -0.876000
     25 N3B          4.4270    -1.4260    -0.4890 n7         1 N6T      -0.943600
     26 PG           6.0170    -1.8540    -1.1380 p5         1 N6T       1.279800
     27 O2G          7.0680    -1.1530    -0.2730 o          1 N6T      -0.901833
     28 O1G          6.0140    -3.3800    -0.9800 o          1 N6T      -0.901833
     29 O3G          6.0140    -1.3860    -2.5920 o          1 N6T      -0.901833
     30 H1          -7.6700    -3.2380    -1.8510 hc         1 N6T       0.018367
     31 H2          -6.3930    -2.8630    -3.0040 hc         1 N6T       0.018367
     32 H3          -6.1740    -4.1570    -1.8280 hc         1 N6T       0.018367
     33 H4          -5.2570    -0.8240    -2.4590 h4         1 N6T       0.184000
     34 H5          -5.5820    -1.6010     2.2030 hn         1 N6T       0.321500
     35 H6          -4.2950     0.9420    -2.1870 h2         1 N6T       0.037700
     36 H7          -4.8380     3.0250    -1.5140 hc         1 N6T       0.038200
     37 H8          -5.5750     2.3510    -0.0690 hc         1 N6T       0.038200
     38 H9          -3.6040     2.7910     1.2150 h1         1 N6T       0.070700
     39 H10         -3.9280     4.8610     0.4290 ho         1 N6T       0.472000
     40 H11         -1.8870     2.7580    -1.2690 h1         1 N6T       0.065700
     41 H12         -0.9020     3.0300     0.9850 h1         1 N6T       0.019700
     42 H13         -1.5770     1.4740     1.4790 h1         1 N6T       0.019700
     43 H15          1.8090    -0.8710     0.1930 hc         1 N6T       0.045700
     44 H16          1.9810     0.2280    -1.1630 hc         1 N6T       0.045700
     45 H18          4.0810    -2.1630     0.1130 hn         1 N6T       0.387000
@<TRIPOS>BOND
     1     1     2 2   
     2     2     3 1   
     3     2     6 1   
     4     3     4 1   
     5     3     5 2   
     6     4    30 1   
     7     4    31 1   
     8     4    32 1   
     9     5     9 1   
    10     5    33 1   
    11     6     7 1   
    12     6    34 1   
    13     7     8 2   
    14     7     9 1   
    15     9    10 1   
    16    10    11 1   
    17    10    14 1   
    18    10    35 1   
    19    11    12 1   
    20    11    36 1   
    21    11    37 1   
    22    12    13 1   
    23    12    15 1   
    24    12    38 1   
    25    13    39 1   
    26    14    15 1   
    27    15    16 1   
    28    15    40 1   
    29    16    17 1   
    30    16    41 1   
    31    16    42 1   
    32    17    18 1   
    33    18    19 1   
    34    18    20 1   
    35    18    21 1   
    36    21    22 1   
    37    21    43 1   
    38    21    44 1   
    39    22    23 1   
    40    22    24 1   
    41    22    25 1   
    42    25    26 1   
    43    25    45 1   
    44    26    27 1   
    45    26    28 1   
    46    26    29 1   
@<TRIPOS>SUBSTRUCTURE
     1 N6T         1 TEMP              0 ****  ****    0 ROOT
