@<TRIPOS>MOLECULE
N6U
   26    27     1     0     0
SMALL
No Charge or Current Charge


@<TRIPOS>ATOM
      1 C1           5.7600     6.4290    42.6770 c3         1 N6U      -0.066100
      2 C2           5.6580     7.9750    42.6150 c3         1 N6U      -0.345400
      3 C7           8.5430     8.3540    44.0890 ca         1 N6U       0.381000
      4 C8           8.9100     9.3770    43.2060 ca         1 N6U      -0.251000
      5 C11         10.6820     7.3390    43.6190 ca         1 N6U       0.391500
      6 C14         10.6350     5.4310    44.9340 cc         1 N6U      -0.149100
      7 C15          9.4590     6.1400    45.0960 cd         1 N6U      -0.233200
      8 C16          9.4790     7.3350    44.2780 ca         1 N6U      -0.179800
      9 S3           5.8510     8.7970    44.2050 s6         1 N6U       1.228100
     10 O4           4.8990     8.2250    45.1570 o          1 N6U      -0.531500
     11 O5           5.9220    10.2460    44.0060 o          1 N6U      -0.531500
     12 N6           7.3340     8.3240    44.7650 nu         1 N6U      -0.902100
     13 C9          10.1620     9.3150    42.5700 ca         1 N6U       0.387900
     14 N10         11.0480     8.3080    42.7650 nb         1 N6U      -0.693000
     15 N12         11.3710     6.2060    44.0090 na         1 N6U      -0.331400
     16 H1           5.6050     5.9990    41.6810 hc         1 N6U       0.049700
     17 H17          6.7480     6.1090    43.0310 hc         1 N6U       0.049700
     18 H18          4.9990     6.0100    43.3470 hc         1 N6U       0.049700
     19 H19          6.4340     8.3870    41.9620 h1         1 N6U       0.104200
     20 H25          4.6750     8.2810    42.2420 h1         1 N6U       0.104200
     21 H21          8.2600    10.2210    43.0100 ha         1 N6U       0.145000
     22 H23         10.9910     4.4990    45.3710 h4         1 N6U       0.219000
     23 H24          8.6480     5.8290    45.7530 ha         1 N6U       0.205000
     24 H20          7.1450     7.4910    45.2990 hn         1 N6U       0.509000
     25 H22         10.4690    10.1010    41.8800 h4         1 N6U       0.025100
     26 H13         12.2940     5.9800    43.6590 hn         1 N6U       0.364000
@<TRIPOS>BOND
     1     1     2 1   
     2     1    16 1   
     3     1    17 1   
     4     1    18 1   
     5     2     9 1   
     6     2    19 1   
     7     2    20 1   
     8     3     4 ar  
     9     3     8 ar  
    10     3    12 1   
    11     4    13 ar  
    12     4    21 1   
    13     5     8 ar  
    14     5    14 ar  
    15     5    15 1   
    16     6     7 2   
    17     6    15 1   
    18     6    22 1   
    19     7     8 1   
    20     7    23 1   
    21     9    10 2   
    22     9    11 2   
    23     9    12 1   
    24    12    24 1   
    25    13    14 ar  
    26    13    25 1   
    27    15    26 1   
@<TRIPOS>SUBSTRUCTURE
     1 N6U         1 TEMP              0 ****  ****    0 ROOT
