@<TRIPOS>MOLECULE
N6U
   26    27     1     0     0
SMALL
abcg2


@<TRIPOS>ATOM
      1 C1           5.4820     6.5300    42.5990 c3         1 N6U      -0.066100
      2 C2           5.5910     8.0450    42.5680 c3         1 N6U      -0.345400
      3 C7           8.5450     8.2170    44.0700 ca         1 N6U       0.381000
      4 C8           8.8920     9.2230    43.1690 ca         1 N6U      -0.251000
      5 C11         10.7640     7.3720    43.6890 ca         1 N6U       0.391500
      6 C14         10.8440     5.5530    44.9970 cc         1 N6U      -0.149100
      7 C15          9.5910     6.0770    45.1770 cd         1 N6U      -0.233200
      8 C16          9.5150     7.2450    44.3510 ca         1 N6U      -0.179800
      9 S3           5.8710     8.7640    44.1770 s6         1 N6U       1.228100
     10 O4           4.8900     8.2710    45.1140 o          1 N6U      -0.531500
     11 O5           6.0310    10.1870    44.0080 o          1 N6U      -0.531500
     12 N6           7.3060     8.1340    44.7180 nu         1 N6U      -0.902100
     13 C9          10.1610     9.2220    42.5810 ca         1 N6U       0.387900
     14 N10         11.1130     8.3170    42.8180 nb         1 N6U      -0.693000
     15 N12         11.5490     6.3300    44.1030 na         1 N6U      -0.331400
     16 H1           5.2970     6.1700    41.5860 hc         1 N6U       0.049700
     17 H17          6.4050     6.0740    42.9570 hc         1 N6U       0.049700
     18 H18          4.6580     6.2070    43.2340 hc         1 N6U       0.049700
     19 H19          6.4150     8.3910    41.9420 h1         1 N6U       0.104200
     20 H25          4.6740     8.5260    42.2210 h1         1 N6U       0.104200
     21 H21          8.1990    10.0120    42.9210 ha         1 N6U       0.145000
     22 H23         11.2960     4.6800    45.4370 h4         1 N6U       0.219000
     23 H24          8.8300     5.6760    45.8260 ha         1 N6U       0.205000
     24 H20          7.1580     7.3160    45.2940 hn         1 N6U       0.509000
     25 H22         10.4110    10.0090    41.8790 h4         1 N6U       0.025100
     26 H13         12.4910     6.1570    43.7910 hn         1 N6U       0.364000
@<TRIPOS>BOND
     1     1     2 1   
     2     1    16 1   
     3     1    17 1   
     4     1    18 1   
     5     2     9 1   
     6     2    19 1   
     7     2    20 1   
     8     3     4 ar  
     9     3     8 ar  
    10     3    12 1   
    11     4    13 ar  
    12     4    21 1   
    13     5     8 ar  
    14     5    14 ar  
    15     5    15 1   
    16     6     7 2   
    17     6    15 1   
    18     6    22 1   
    19     7     8 1   
    20     7    23 1   
    21     9    10 2   
    22     9    11 2   
    23     9    12 1   
    24    12    24 1   
    25    13    14 ar  
    26    13    25 1   
    27    15    26 1   
@<TRIPOS>SUBSTRUCTURE
     1 N6U         1 TEMP              0 ****  ****    0 ROOT
