@<TRIPOS>MOLECULE
N6V
   51    53     1     0     0
SMALL
abcg2


@<TRIPOS>ATOM
      1 N1          -3.1050     0.6400    -1.3990 na         1 N6V      -0.087700
      2 N3           4.2570    -1.0800     0.0630 ns         1 N6V      -0.497400
      3 C4          -4.8020     0.6590     0.3970 c3         1 N6V       0.148800
      4 C5          -4.4110     0.1720    -0.9960 c3         1 N6V       0.073600
      5 C6          -2.8480     1.7940    -2.0870 cc         1 N6V      -0.156100
      6 C7          -1.5020     1.9780    -2.2210 cd         1 N6V      -0.239200
      7 C8          -0.8740     0.8740    -1.5680 ca         1 N6V      -0.080800
      8 C10          0.7310    -0.6650    -0.6810 ca         1 N6V      -0.060000
      9 C13          5.8890     0.7890     0.5930 cc         1 N6V      -0.241000
     10 C15          8.2430     1.6790     1.2180 c3         1 N6V      -0.137400
     11 C17         -1.6410    -1.1130    -0.3630 ca         1 N6V      -0.104000
     12 N           -6.0450     0.0450     0.8200 n3         1 N6V      -0.741600
     13 C           -7.0220    -2.1660     1.3930 c3         1 N6V      -0.090600
     14 O            3.0740     0.8630    -0.0620 o          1 N6V      -0.599100
     15 C1          -5.8190    -1.2410     1.4640 c3         1 N6V       0.174800
     16 C11          3.1100    -0.3500    -0.1490 c          1 N6V       0.671100
     17 C12          5.4820    -0.5580     0.3990 cc         1 N6V       0.423900
     18 C14          7.2030     0.6750     0.9000 cd         1 N6V       0.189300
     19 C16         -0.3190    -1.4560    -0.1730 ca         1 N6V      -0.131000
     20 C18         -1.9110     0.0630    -1.0600 ca         1 N6V      -0.062200
     21 C2          -6.8670     0.9410     1.6210 c3         1 N6V       0.174800
     22 C3          -7.5950     1.9710     0.7740 c3         1 N6V      -0.090600
     23 C9           0.4600     0.4940    -1.3880 ca         1 N6V      -0.058000
     24 N2           2.0430    -1.1300    -0.4730 ns         1 N6V      -0.161000
     25 N4           6.4760    -1.3880     0.5780 nd         1 N6V      -0.444300
     26 O1           7.5560    -0.6110     0.8920 os         1 N6V      -0.068700
     27 H1           4.2280    -2.0850    -0.0290 hn         1 N6V       0.332500
     28 H2          -3.9840     0.4730     1.1110 h1         1 N6V       0.044700
     29 H3          -4.9210     1.7440     0.3560 h1         1 N6V       0.044700
     30 H4          -5.1430     0.5230    -1.7240 h1         1 N6V       0.064700
     31 H5          -4.4170    -0.9190    -1.0470 h1         1 N6V       0.064700
     32 H6          -3.6630     2.4070    -2.4390 h4         1 N6V       0.212000
     33 H7          -1.0190     2.7980    -2.7280 ha         1 N6V       0.209000
     34 H8           5.3090     1.6900     0.5180 ha         1 N6V       0.177000
     35 H9           8.6910     1.4890     2.1940 hc         1 N6V       0.062367
     36 H10          9.0430     1.6670     0.4760 hc         1 N6V       0.062367
     37 H11          7.8040     2.6740     1.2300 hc         1 N6V       0.062367
     38 H12         -2.4280    -1.7420     0.0330 ha         1 N6V       0.115000
     39 H14         -7.8930    -1.7580     1.9080 hc         1 N6V       0.037700
     40 H15         -7.3020    -2.3540     0.3560 hc         1 N6V       0.037700
     41 H16         -6.7880    -3.1220     1.8610 hc         1 N6V       0.037700
     42 H17         -4.9860    -1.7350     0.9570 h1         1 N6V       0.030200
     43 H18         -5.4980    -1.1160     2.5100 h1         1 N6V       0.030200
     44 H19         -0.0800    -2.3570     0.3790 ha         1 N6V       0.107000
     45 H20         -7.6130     0.3440     2.1480 h1         1 N6V       0.030200
     46 H21         -6.2730     1.4420     2.4020 h1         1 N6V       0.030200
     47 H22         -6.9080     2.6030     0.2090 hc         1 N6V       0.037700
     48 H23         -8.2590     1.4810     0.0620 hc         1 N6V       0.037700
     49 H24         -8.1960     2.6270     1.4050 hc         1 N6V       0.037700
     50 H25          1.2570     1.0940    -1.8030 ha         1 N6V       0.139000
     51 H26          2.1430    -2.1300    -0.3860 hn         1 N6V       0.148000
@<TRIPOS>BOND
     1     1     4 1   
     2     1     5 1   
     3     1    20 1   
     4     2    16 1   
     5     2    17 1   
     6     2    27 1   
     7     3     4 1   
     8     3    12 1   
     9     3    28 1   
    10     3    29 1   
    11     4    30 1   
    12     4    31 1   
    13     5     6 2   
    14     5    32 1   
    15     6     7 1   
    16     6    33 1   
    17     7    20 ar  
    18     7    23 ar  
    19     8    19 ar  
    20     8    23 ar  
    21     8    24 1   
    22     9    17 1   
    23     9    18 2   
    24     9    34 1   
    25    10    18 1   
    26    10    35 1   
    27    10    36 1   
    28    10    37 1   
    29    11    19 ar  
    30    11    20 ar  
    31    11    38 1   
    32    12    15 1   
    33    12    21 1   
    34    13    15 1   
    35    13    39 1   
    36    13    40 1   
    37    13    41 1   
    38    14    16 2   
    39    15    42 1   
    40    15    43 1   
    41    16    24 1   
    42    17    25 2   
    43    18    26 1   
    44    19    44 1   
    45    21    22 1   
    46    21    45 1   
    47    21    46 1   
    48    22    47 1   
    49    22    48 1   
    50    22    49 1   
    51    23    50 1   
    52    24    51 1   
    53    25    26 1   
@<TRIPOS>SUBSTRUCTURE
     1 N6V         1 TEMP              0 ****  ****    0 ROOT
