@<TRIPOS>MOLECULE
N6V
   51    53     1     0     0
SMALL
No Charge or Current Charge


@<TRIPOS>ATOM
      1 N1          -3.0890     0.5560    -1.4570 na         1 N6V      -0.087700
      2 N3           4.2960    -0.5630     0.9150 ns         1 N6V      -0.497400
      3 C4          -4.9910     0.3860     0.1820 c3         1 N6V       0.148800
      4 C5          -4.3790    -0.0900    -1.1590 c3         1 N6V       0.073600
      5 C6          -2.8660     1.6540    -2.3120 cc         1 N6V      -0.156100
      6 C7          -1.4980     1.8770    -2.2290 cd         1 N6V      -0.239200
      7 C8          -0.8820     0.9320    -1.3330 ca         1 N6V      -0.080800
      8 C10          0.7430    -0.2780    -0.0190 ca         1 N6V      -0.060000
      9 C13          6.2950     0.7500     0.2280 cc         1 N6V      -0.241000
     10 C15          8.8000     1.4290     0.1620 c3         1 N6V      -0.137400
     11 C17         -1.6430    -0.9050     0.0270 ca         1 N6V      -0.104000
     12 N           -6.3700    -0.1130     0.4820 n3         1 N6V      -0.741600
     13 C           -7.8530    -2.1990     0.6520 c3         1 N6V      -0.090600
     14 O            3.4550     0.9930    -0.5320 o          1 N6V      -0.599100
     15 C1          -6.4330    -1.6020     0.5650 c3         1 N6V       0.174800
     16 C11          3.2830     0.0440     0.2160 c          1 N6V       0.671100
     17 C12          5.6370    -0.2690     0.9370 cc         1 N6V       0.423900
     18 C14          7.5970     0.6340     0.5800 cd         1 N6V       0.189300
     19 C16         -0.3110    -1.1030     0.4520 ca         1 N6V      -0.131000
     20 C18         -1.8940     0.1360    -0.8780 ca         1 N6V      -0.062200
     21 C2          -6.9750     0.5540     1.6720 c3         1 N6V       0.174800
     22 C3          -7.1360     2.0850     1.5600 c3         1 N6V      -0.090600
     23 C9           0.4500     0.7670    -0.9350 ca         1 N6V      -0.058000
     24 N2           2.0540    -0.5520     0.4640 ns         1 N6V      -0.161000
     25 N4           6.4470    -0.9900     1.6900 nd         1 N6V      -0.444300
     26 O1           7.7440    -0.4030     1.4620 os         1 N6V      -0.068700
     27 H1           4.0080    -1.3370     1.4950 hn         1 N6V       0.332500
     28 H2          -4.3080     0.1050     0.9950 h1         1 N6V       0.044700
     29 H3          -4.9920     1.4820     0.1370 h1         1 N6V       0.044700
     30 H4          -5.0790     0.1420    -1.9710 h1         1 N6V       0.064700
     31 H5          -4.2270    -1.1750    -1.1470 h1         1 N6V       0.064700
     32 H6          -3.6530     2.1520    -2.8720 h4         1 N6V       0.212000
     33 H7          -0.9700     2.6620    -2.7670 ha         1 N6V       0.209000
     34 H8           5.8610     1.4710    -0.4510 ha         1 N6V       0.177000
     35 H9           9.2780     1.8980     1.0300 hc         1 N6V       0.062367
     36 H10          9.5410     0.7870    -0.3280 hc         1 N6V       0.062367
     37 H11          8.5230     2.2240    -0.5410 hc         1 N6V       0.062367
     38 H12         -2.4410    -1.5440     0.3950 ha         1 N6V       0.115000
     39 H14         -8.3180    -1.9920     1.6220 hc         1 N6V       0.037700
     40 H15         -8.4930    -1.7940    -0.1410 hc         1 N6V       0.037700
     41 H16         -7.8090    -3.2870     0.5320 hc         1 N6V       0.037700
     42 H17         -5.9760    -2.0440    -0.3290 h1         1 N6V       0.030200
     43 H18         -5.8500    -1.9560     1.4270 h1         1 N6V       0.030200
     44 H19         -0.0960    -1.9060     1.1540 ha         1 N6V       0.107000
     45 H20         -7.9830     0.1590     1.8470 h1         1 N6V       0.030200
     46 H21         -6.3850     0.3280     2.5710 h1         1 N6V       0.030200
     47 H22         -6.1670     2.5960     1.6040 hc         1 N6V       0.037700
     48 H23         -7.6380     2.3540     0.6240 hc         1 N6V       0.037700
     49 H24         -7.7430     2.4580     2.3930 hc         1 N6V       0.037700
     50 H25          1.2110     1.4310    -1.3300 ha         1 N6V       0.139000
     51 H26          2.0910    -1.3280     1.1100 hn         1 N6V       0.148000
@<TRIPOS>BOND
     1     1     4 1   
     2     1     5 1   
     3     1    20 1   
     4     2    16 1   
     5     2    17 1   
     6     2    27 1   
     7     3     4 1   
     8     3    12 1   
     9     3    28 1   
    10     3    29 1   
    11     4    30 1   
    12     4    31 1   
    13     5     6 2   
    14     5    32 1   
    15     6     7 1   
    16     6    33 1   
    17     7    20 ar  
    18     7    23 ar  
    19     8    19 ar  
    20     8    23 ar  
    21     8    24 1   
    22     9    17 1   
    23     9    18 2   
    24     9    34 1   
    25    10    18 1   
    26    10    35 1   
    27    10    36 1   
    28    10    37 1   
    29    11    19 ar  
    30    11    20 ar  
    31    11    38 1   
    32    12    15 1   
    33    12    21 1   
    34    13    15 1   
    35    13    39 1   
    36    13    40 1   
    37    13    41 1   
    38    14    16 2   
    39    15    42 1   
    40    15    43 1   
    41    16    24 1   
    42    17    25 2   
    43    18    26 1   
    44    19    44 1   
    45    21    22 1   
    46    21    45 1   
    47    21    46 1   
    48    22    47 1   
    49    22    48 1   
    50    22    49 1   
    51    23    50 1   
    52    24    51 1   
    53    25    26 1   
@<TRIPOS>SUBSTRUCTURE
     1 N6V         1 TEMP              0 ****  ****    0 ROOT
