@<TRIPOS>MOLECULE
N6W
   30    32     1     0     0
SMALL
abcg2


@<TRIPOS>ATOM
      1 C14         -1.2080    -0.1950    -0.2960 ca         1 N6W       0.028300
      2 C11         -3.6510     1.0410    -0.7450 ca         1 N6W      -0.110000
      3 C10         -2.8050     1.5160     0.2410 ca         1 N6W      -0.095500
      4 C12         -3.2720    -0.0490    -1.5210 ca         1 N6W      -0.102500
      5 C13         -2.0510    -0.6640    -1.2950 ca         1 N6W      -0.099500
      6 C01          3.6080     1.1420    -0.8030 ca         1 N6W      -0.110000
      7 C02          3.2390     0.0530    -1.5860 ca         1 N6W      -0.102500
      8 C03          2.0350    -0.5910    -1.3440 ca         1 N6W      -0.099500
      9 C04          1.2020    -0.1520    -0.3210 ca         1 N6W       0.028300
     10 C05          1.5440     0.9640     0.4530 ca         1 N6W      -0.047500
     11 C06          2.7700     1.5890     0.2030 ca         1 N6W      -0.095500
     12 C07          0.6630     1.4980     1.4830 cc         1 N6W      -0.090000
     13 C08         -0.6790     1.4800     1.4890 cd         1 N6W      -0.090000
     14 C09         -1.5600     0.9190     0.4720 ca         1 N6W      -0.047500
     15 N15          0.0120    -0.8620    -0.0280 n          1 N6W      -0.159400
     16 N18          1.1830    -2.4570     1.1720 nt         1 N6W      -0.621000
     17 O17         -1.0760    -2.4890     1.1160 o          1 N6W      -0.626100
     18 H1          -4.6070     1.5190    -0.9110 ha         1 N6W       0.115500
     19 H2          -3.1010     2.3690     0.8390 ha         1 N6W       0.115000
     20 H3          -3.9320    -0.4270    -2.2920 ha         1 N6W       0.117000
     21 H4          -1.7500    -1.5240    -1.8790 ha         1 N6W       0.126000
     22 H5           4.5510     1.6420    -0.9810 ha         1 N6W       0.115500
     23 H6           3.8910    -0.3010    -2.3730 ha         1 N6W       0.117000
     24 H7           1.7410    -1.4500    -1.9320 ha         1 N6W       0.126000
     25 H8           3.0590     2.4430     0.8040 ha         1 N6W       0.115000
     26 H9           1.1550     2.0490     2.2770 ha         1 N6W       0.110000
     27 H10         -1.1760     2.0190     2.2880 ha         1 N6W       0.110000
     28 H11          1.2090    -3.3030     1.7130 hn         1 N6W       0.322500
     29 H12          2.0630    -2.0580     0.8960 hn         1 N6W       0.322500
     30 C16         -0.0150    -1.9790     0.7850 c          1 N6W       0.627900
@<TRIPOS>BOND
     1     1     5 ar  
     2     1    14 ar  
     3     1    15 1   
     4     2     3 ar  
     5     2     4 ar  
     6     2    18 1   
     7     3    14 ar  
     8     3    19 1   
     9     4     5 ar  
    10     4    20 1   
    11     5    21 1   
    12     6     7 ar  
    13     6    11 ar  
    14     6    22 1   
    15     7     8 ar  
    16     7    23 1   
    17     8     9 ar  
    18     8    24 1   
    19     9    10 ar  
    20     9    15 1   
    21    10    11 ar  
    22    10    12 1   
    23    11    25 1   
    24    12    13 2   
    25    12    26 1   
    26    13    14 1   
    27    13    27 1   
    28    15    30 1   
    29    16    28 1   
    30    16    29 1   
    31    16    30 1   
    32    17    30 2   
@<TRIPOS>SUBSTRUCTURE
     1 N6W         1 TEMP              0 ****  ****    0 ROOT
