@<TRIPOS>MOLECULE
N6W
   30    32     1     0     0
SMALL
No Charge or Current Charge


@<TRIPOS>ATOM
      1 C14         -1.2300    -0.1440    -0.2370 ca         1 N6W       0.028300
      2 C11         -3.7590     1.0540    -0.6720 ca         1 N6W      -0.110000
      3 C10         -2.8120     1.6730     0.1570 ca         1 N6W      -0.095500
      4 C12         -3.4520    -0.1650    -1.2840 ca         1 N6W      -0.102500
      5 C13         -2.2030    -0.7610    -1.0580 ca         1 N6W      -0.099500
      6 C01          3.6940     1.1820    -0.6790 ca         1 N6W      -0.110000
      7 C02          3.3890     0.0040    -1.3710 ca         1 N6W      -0.102500
      8 C03          2.1660    -0.6420    -1.1350 ca         1 N6W      -0.099500
      9 C04          1.2290    -0.1210    -0.2130 ca         1 N6W       0.028300
     10 C05          1.5360     1.0740     0.4780 ca         1 N6W      -0.047500
     11 C06          2.7750     1.7060     0.2410 ca         1 N6W      -0.095500
     12 C07          0.6910     1.6730     1.5040 cc         1 N6W      -0.090000
     13 C08         -0.6660     1.8020     1.3220 cd         1 N6W      -0.090000
     14 C09         -1.5380     1.1020     0.3690 ca         1 N6W      -0.047500
     15 N15          0.0060    -0.8550    -0.0290 n          1 N6W      -0.159400
     16 N18          1.2060    -2.7340     0.7690 nt         1 N6W      -0.621000
     17 O17         -1.0010    -2.8430     0.6690 o          1 N6W      -0.626100
     18 H1          -4.7310     1.5170    -0.8310 ha         1 N6W       0.115500
     19 H2          -3.0720     2.6130     0.6380 ha         1 N6W       0.115000
     20 H3          -4.1830    -0.6540    -1.9250 ha         1 N6W       0.117000
     21 H4          -1.9830    -1.7110    -1.5380 ha         1 N6W       0.126000
     22 H5           4.6420     1.6870    -0.8530 ha         1 N6W       0.115500
     23 H6           4.0960    -0.4080    -2.0880 ha         1 N6W       0.117000
     24 H7           1.9360    -1.5500    -1.6880 ha         1 N6W       0.126000
     25 H8           3.0290     2.6170     0.7790 ha         1 N6W       0.115000
     26 H9           1.1470     2.2380     2.3110 ha         1 N6W       0.110000
     27 H10         -1.1650     2.4460     2.0390 ha         1 N6W       0.110000
     28 H11          1.2400    -3.6720     1.1390 hn         1 N6W       0.322500
     29 H12          2.0490    -2.1970     0.6400 hn         1 N6W       0.322500
     30 C16          0.0080    -2.1870     0.4690 c          1 N6W       0.627900
@<TRIPOS>BOND
     1     1     5 ar  
     2     1    14 ar  
     3     1    15 1   
     4     2     3 ar  
     5     2     4 ar  
     6     2    18 1   
     7     3    14 ar  
     8     3    19 1   
     9     4     5 ar  
    10     4    20 1   
    11     5    21 1   
    12     6     7 ar  
    13     6    11 ar  
    14     6    22 1   
    15     7     8 ar  
    16     7    23 1   
    17     8     9 ar  
    18     8    24 1   
    19     9    10 ar  
    20     9    15 1   
    21    10    11 ar  
    22    10    12 1   
    23    11    25 1   
    24    12    13 2   
    25    12    26 1   
    26    13    14 1   
    27    13    27 1   
    28    15    30 1   
    29    16    28 1   
    30    16    29 1   
    31    16    30 1   
    32    17    30 2   
@<TRIPOS>SUBSTRUCTURE
     1 N6W         1 TEMP              0 ****  ****    0 ROOT
