@<TRIPOS>MOLECULE
N6X
   34    35     1     0     0
SMALL
No Charge or Current Charge


@<TRIPOS>ATOM
      1 N1           7.3860     2.9610    18.4270 nb         1 N6X      -0.619000
      2 N3          12.5040    -4.3590    20.3480 n1         1 N6X      -0.448000
      3 C4           8.1010     2.5030    19.4780 ca         1 N6X       0.299900
      4 C5           7.7650     1.3280    20.2010 ca         1 N6X      -0.049000
      5 C6           9.6130     1.4180    21.9930 c          1 N6X       0.603100
      6 C7          10.2020     0.5140    23.0840 c3         1 N6X      -0.111100
      7 C8          11.4850    -0.1550    22.5980 ca         1 N6X      -0.090300
      8 C10         13.9080    -0.1260    22.3140 ca         1 N6X      -0.111000
      9 C13         12.5600    -3.3160    20.8700 cg         1 N6X       0.321000
     10 C12         12.6170    -2.0310    21.5120 ca         1 N6X      -0.017000
     11 C11         13.8550    -1.3830    21.6870 ca         1 N6X      -0.065000
     12 C9          12.7270     0.4860    22.7670 ca         1 N6X      -0.067000
     13 C14         11.4350    -1.4150    21.9680 ca         1 N6X      -0.068000
     14 O           10.0640     2.5360    21.7730 o          1 N6X      -0.573100
     15 N2           8.5530     0.8550    21.2940 ns         1 N6X      -0.158000
     16 C1           6.6200     0.5840    19.8070 ca         1 N6X      -0.136300
     17 C            6.2280    -0.6950    20.5660 c3         1 N6X      -0.041800
     18 C3           6.3000     2.2460    18.0530 ca         1 N6X       0.262900
     19 C2           5.8720     1.0510    18.6960 ca         1 N6X       0.252000
     20 N            4.7580     0.3580    18.2430 nv         1 N6X      -1.074000
     21 H1           8.9750     3.1000    19.7240 h4         1 N6X       0.040100
     22 H2          10.4180     1.1270    23.9670 hc         1 N6X       0.071700
     23 H3           9.4750    -0.2610    23.3540 hc         1 N6X       0.071700
     24 H4          14.8640     0.3740    22.4480 ha         1 N6X       0.125000
     25 H5          14.7740    -1.8500    21.3390 ha         1 N6X       0.129000
     26 H6          12.7790     1.4610    23.2480 ha         1 N6X       0.128000
     27 H7          10.4780    -1.9160    21.8310 ha         1 N6X       0.119000
     28 H8           8.2950    -0.0710    21.6120 hn         1 N6X       0.153000
     29 H9           6.8220    -1.5500    20.2220 hc         1 N6X       0.042700
     30 H10          6.3870    -0.5920    21.6460 hc         1 N6X       0.042700
     31 H11          5.1710    -0.9560    20.4470 hc         1 N6X       0.042700
     32 H12          5.7490     2.6370    17.1980 h4         1 N6X       0.019100
     33 H13          4.5470    -0.5640    18.6190 hn         1 N6X       0.453000
     34 H14          4.3000     0.6270    17.3720 hn         1 N6X       0.453000
@<TRIPOS>BOND
     1     1     3 ar  
     2     1    18 ar  
     3     2     9 3   
     4     3     4 ar  
     5     3    21 1   
     6     4    15 1   
     7     4    16 ar  
     8     5     6 1   
     9     5    14 2   
    10     5    15 1   
    11     6     7 1   
    12     6    22 1   
    13     6    23 1   
    14     7    12 ar  
    15     7    13 ar  
    16     8    11 ar  
    17     8    12 ar  
    18     8    24 1   
    19     9    10 1   
    20    10    11 ar  
    21    10    13 ar  
    22    11    25 1   
    23    12    26 1   
    24    13    27 1   
    25    15    28 1   
    26    16    17 1   
    27    16    19 ar  
    28    17    29 1   
    29    17    30 1   
    30    17    31 1   
    31    18    19 ar  
    32    18    32 1   
    33    19    20 1   
    34    20    33 1   
    35    20    34 1   
@<TRIPOS>SUBSTRUCTURE
     1 N6X         1 TEMP              0 ****  ****    0 ROOT
