@<TRIPOS>MOLECULE
N6X
   34    35     1     0     0
SMALL
abcg2


@<TRIPOS>ATOM
      1 N1           7.9360     2.2360    18.1020 nb         1 N6X      -0.619000
      2 N3          13.1960    -3.9140    20.0400 n1         1 N6X      -0.448000
      3 C4           8.5380     1.7200    19.1720 ca         1 N6X       0.299900
      4 C5           7.8780     0.8780    20.0670 ca         1 N6X      -0.049000
      5 C6           9.3950     1.0320    22.0130 c          1 N6X       0.603100
      6 C7          10.0690     0.1750    23.0790 c3         1 N6X      -0.111100
      7 C8          11.4470    -0.2340    22.6170 ca         1 N6X      -0.090300
      8 C10         13.8240     0.2130    22.4350 ca         1 N6X      -0.111000
      9 C13         13.0600    -2.9480    20.6560 cg         1 N6X       0.321000
     10 C12         12.8940    -1.7500    21.4140 ca         1 N6X      -0.017000
     11 C11         14.0030    -0.9440    21.6930 ca         1 N6X      -0.065000
     12 C9          12.5580     0.5650    22.8920 ca         1 N6X      -0.067000
     13 C14         11.6210    -1.3970    21.8740 ca         1 N6X      -0.068000
     14 O            9.6150     2.2330    21.9210 o          1 N6X      -0.573100
     15 N2           8.5780     0.3430    21.1740 ns         1 N6X      -0.158000
     16 C1           6.5410     0.5340    19.8530 ca         1 N6X      -0.136300
     17 C            5.7600    -0.3570    20.7720 c3         1 N6X      -0.041800
     18 C3           6.6630     1.9170    17.8790 ca         1 N6X       0.262900
     19 C2           5.9220     1.0660    18.7060 ca         1 N6X       0.252000
     20 N            4.6250     0.7180    18.3660 nv         1 N6X      -1.074000
     21 H1           9.5760     1.9770    19.3340 h4         1 N6X       0.040100
     22 H2          10.1400     0.7810    23.9810 hc         1 N6X       0.071700
     23 H3           9.4680    -0.7080    23.2980 hc         1 N6X       0.071700
     24 H4          14.6740     0.8430    22.6610 ha         1 N6X       0.125000
     25 H5          14.9830    -1.2300    21.3350 ha         1 N6X       0.129000
     26 H6          12.4290     1.4690    23.4730 ha         1 N6X       0.128000
     27 H7          10.7750    -2.0330    21.6510 ha         1 N6X       0.119000
     28 H8           8.4180    -0.6280    21.3920 hn         1 N6X       0.153000
     29 H9           5.4690    -1.2800    20.2640 hc         1 N6X       0.042700
     30 H10          6.3150    -0.6200    21.6690 hc         1 N6X       0.042700
     31 H11          4.8370     0.1360    21.0930 hc         1 N6X       0.042700
     32 H12          6.1920     2.3440    16.9980 h4         1 N6X       0.019100
     33 H13          4.0140     0.4560    19.1240 hn         1 N6X       0.453000
     34 H14          4.1730     1.3350    17.7070 hn         1 N6X       0.453000
@<TRIPOS>BOND
     1     1     3 ar  
     2     1    18 ar  
     3     2     9 3   
     4     3     4 ar  
     5     3    21 1   
     6     4    15 1   
     7     4    16 ar  
     8     5     6 1   
     9     5    14 2   
    10     5    15 1   
    11     6     7 1   
    12     6    22 1   
    13     6    23 1   
    14     7    12 ar  
    15     7    13 ar  
    16     8    11 ar  
    17     8    12 ar  
    18     8    24 1   
    19     9    10 1   
    20    10    11 ar  
    21    10    13 ar  
    22    11    25 1   
    23    12    26 1   
    24    13    27 1   
    25    15    28 1   
    26    16    17 1   
    27    16    19 ar  
    28    17    29 1   
    29    17    30 1   
    30    17    31 1   
    31    18    19 ar  
    32    18    32 1   
    33    19    20 1   
    34    20    33 1   
    35    20    34 1   
@<TRIPOS>SUBSTRUCTURE
     1 N6X         1 TEMP              0 ****  ****    0 ROOT
