@<TRIPOS>MOLECULE
N6Y
   23    24     1     0     0
SMALL
No Charge or Current Charge


@<TRIPOS>ATOM
      1 C           -3.3740     0.8730    -0.3470 ca         1 N6Y      -0.165000
      2 N           -3.0130    -1.3510     0.5340 nb         1 N6Y      -0.667000
      3 C1          -3.8400    -0.3690     0.1120 ca         1 N6Y       0.334900
      4 N1           3.5000    -1.6340    -0.4060 nv         1 N6Y      -1.075000
      5 C2          -1.6800    -1.1090     0.5050 ca         1 N6Y       0.344900
      6 C3          -1.1000     0.1100     0.0630 cp         1 N6Y      -0.084000
      7 C4          -1.9920     1.1210    -0.3730 ca         1 N6Y      -0.064000
      8 C5           0.3850     0.3150     0.0580 cp         1 N6Y       0.005000
      9 C6           1.2740    -0.7660    -0.1730 ca         1 N6Y      -0.169000
     10 C7           2.6640    -0.5760    -0.1770 ca         1 N6Y       0.294000
     11 C8           3.1970     0.6990     0.0500 ca         1 N6Y      -0.175000
     12 C9           2.3410     1.7870     0.2830 ca         1 N6Y      -0.070000
     13 C10          0.9490     1.5950     0.2860 ca         1 N6Y      -0.145000
     14 H           -4.0800     1.6290    -0.6790 ha         1 N6Y       0.123000
     15 H1          -4.9080    -0.5850     0.1420 h4         1 N6Y       0.018100
     16 HN1          3.1270    -2.5810    -0.4310 hn         1 N6Y       0.449500
     17 HN1A         4.5040    -1.5270    -0.2720 hn         1 N6Y       0.449500
     18 H2          -1.0500    -1.9210     0.8650 h4         1 N6Y       0.019100
     19 H4          -1.6210     2.0750    -0.7400 ha         1 N6Y       0.122000
     20 H6           0.8780    -1.7580    -0.3650 ha         1 N6Y       0.115000
     21 H8           4.2730     0.8520     0.0480 ha         1 N6Y       0.112000
     22 H9           2.7540     2.7780     0.4630 ha         1 N6Y       0.111000
     23 H10          0.3050     2.4480     0.4830 ha         1 N6Y       0.115000
@<TRIPOS>BOND
     1     1     3 ar  
     2     1     7 ar  
     3     1    14 1   
     4     2     3 ar  
     5     2     5 ar  
     6     3    15 1   
     7     4    10 1   
     8     4    16 1   
     9     4    17 1   
    10     5     6 ar  
    11     5    18 1   
    12     6     7 ar  
    13     6     8 1   
    14     7    19 1   
    15     8     9 ar  
    16     8    13 ar  
    17     9    10 ar  
    18     9    20 1   
    19    10    11 ar  
    20    11    12 ar  
    21    11    21 1   
    22    12    13 ar  
    23    12    22 1   
    24    13    23 1   
@<TRIPOS>SUBSTRUCTURE
     1 N6Y         1 TEMP              0 ****  ****    0 ROOT
