@<TRIPOS>MOLECULE
N6Y
   23    24     1     0     0
SMALL
bcc


@<TRIPOS>ATOM
      1 C           -3.3180     0.8400    -0.3930 ca         1 N6Y      -0.248300
      2 N           -2.9450    -1.2940     0.6020 nb         1 N6Y      -0.667000
      3 C1          -3.7650    -0.3650     0.1260 ca         1 N6Y       0.400200
      4 N1           3.4580    -1.6200    -0.5620 nv         1 N6Y      -0.826200
      5 C2          -1.6420    -1.0510     0.5720 ca         1 N6Y       0.410200
      6 C3          -1.0750     0.1200     0.0650 cp         1 N6Y      -0.149300
      7 C4          -1.9550     1.0840    -0.4240 ca         1 N6Y      -0.082000
      8 C5           0.3850     0.3240     0.0600 cp         1 N6Y       0.005000
      9 C6           1.2390    -0.7400    -0.2170 ca         1 N6Y      -0.187000
     10 C7           2.6280    -0.5750    -0.2240 ca         1 N6Y       0.155600
     11 C8           3.1490     0.6940     0.0580 ca         1 N6Y      -0.193000
     12 C9           2.2990     1.7520     0.3310 ca         1 N6Y      -0.088000
     13 C10          0.9210     1.5830     0.3350 ca         1 N6Y      -0.163000
     14 H           -4.0230     1.5680    -0.7710 ha         1 N6Y       0.141000
     15 H1          -4.8250    -0.5890     0.1590 h4         1 N6Y       0.018100
     16 HN1          3.0900    -2.5450    -0.4110 hn         1 N6Y       0.394300
     17 HN1A         4.4130    -1.5400    -0.2520 hn         1 N6Y       0.394300
     18 H2          -1.0020    -1.8220     0.9890 h4         1 N6Y       0.019100
     19 H4          -1.5790     2.0090    -0.8420 ha         1 N6Y       0.140000
     20 H6           0.8250    -1.7130    -0.4590 ha         1 N6Y       0.133000
     21 H8           4.2220     0.8450     0.0600 ha         1 N6Y       0.130000
     22 H9           2.7190     2.7240     0.5560 ha         1 N6Y       0.129000
     23 H10          0.2740     2.4170     0.5720 ha         1 N6Y       0.133000
@<TRIPOS>BOND
     1     1     3 ar  
     2     1     7 ar  
     3     1    14 1   
     4     2     3 ar  
     5     2     5 ar  
     6     3    15 1   
     7     4    10 1   
     8     4    16 1   
     9     4    17 1   
    10     5     6 ar  
    11     5    18 1   
    12     6     7 ar  
    13     6     8 1   
    14     7    19 1   
    15     8     9 ar  
    16     8    13 ar  
    17     9    10 ar  
    18     9    20 1   
    19    10    11 ar  
    20    11    12 ar  
    21    11    21 1   
    22    12    13 ar  
    23    12    22 1   
    24    13    23 1   
@<TRIPOS>SUBSTRUCTURE
     1 N6Y         1 TEMP              0 ****  ****    0 ROOT
