@<TRIPOS>MOLECULE
N6Z
   66    69     1     0     0
SMALL
abcg2


@<TRIPOS>ATOM
      1 C2          -2.9590    -3.8610     1.0720 ca         1 N6Z       0.159900
      2 C11          0.9040    -0.5220    -2.6140 ca         1 N6Z      -0.141000
      3 C12         -0.3790    -0.6980    -3.0820 ca         1 N6Z       0.176000
      4 C13         -1.3890    -1.2020    -2.2930 ca         1 N6Z      -0.132000
      5 C20          4.6300     0.2240    -0.3470 ca         1 N6Z      -0.210600
      6 C22          5.2250     1.2590     0.3620 ca         1 N6Z       0.229000
      7 C23          6.4910     1.1640     0.8980 ca         1 N6Z      -0.168000
      8 C24          7.2320    -0.0040     0.7180 ca         1 N6Z       0.012700
      9 C25          6.6540    -1.0520     0.0020 ca         1 N6Z      -0.134000
     10 C26          5.3750    -0.9410    -0.5140 ca         1 N6Z      -0.058000
     11 C28          8.5970    -0.1630     1.2630 cx         1 N6Z      -0.104400
     12 C29          9.5500     1.0010     1.3400 cx         1 N6Z      -0.114900
     13 C30          8.9800     0.4330     2.5930 cx         1 N6Z      -0.114900
     14 N1          -1.9780    -3.3580     0.3510 nb         1 N6Z      -0.206000
     15 N3          -4.1220    -3.2970     1.3550 nb         1 N6Z      -0.260000
     16 C4          -4.3380    -2.0770     0.8670 ca         1 N6Z       0.366900
     17 C5          -3.3490    -1.4400     0.0810 ca         1 N6Z      -0.061900
     18 C6          -2.1810    -2.1280    -0.1500 cp         1 N6Z       0.176500
     19 C7          -1.0990    -1.5400    -0.9760 cp         1 N6Z      -0.107500
     20 N8          -5.4930    -1.4570     1.1570 nv         1 N6Z      -1.056900
     21 C9           0.1770    -1.3440    -0.4400 ca         1 N6Z      -0.086300
     22 C10          1.1750    -0.8470    -1.2890 ca         1 N6Z      -0.016000
     23 O14         -3.5930    -0.2030    -0.4170 os         1 N6Z      -0.357100
     24 N17          2.4800    -0.7100    -0.7880 ns         1 N6Z      -0.161000
     25 O21          2.9310     1.3860    -1.5370 o          1 N6Z      -0.555100
     26 F27          4.5340     2.3850     0.5720 f          1 N6Z      -0.158000
     27 C31         -3.7060     2.1590    -0.1360 c3         1 N6Z       0.104000
     28 N32         -5.1580     2.1500    -0.1450 n          1 N6Z      -0.415800
     29 C33         -5.8200     2.4040     1.0090 c          1 N6Z       0.593100
     30 C34         -5.8450     1.7890    -1.3720 c3         1 N6Z       0.098300
     31 O35         -5.2260     2.6740     2.0440 o          1 N6Z      -0.600100
     32 C36         -7.3330     2.3310     0.9540 c3         1 N6Z      -0.153400
     33 C37         -7.9910     2.5660     2.3010 c3         1 N6Z      -0.078100
     34 H1          -2.7990    -4.8540     1.4800 h5         1 N6Z       0.049100
     35 H2           1.6800    -0.1630    -3.2760 ha         1 N6Z       0.150000
     36 H3          -2.3800    -1.3470    -2.7010 ha         1 N6Z       0.141000
     37 H4          -3.3740     0.7160     1.4350 h1         1 N6Z       0.053200
     38 H5          -2.0120     0.9300     0.3250 h1         1 N6Z       0.053200
     39 H6           0.9460    -2.6100     1.1350 hc         1 N6Z       0.047367
     40 H7           1.1790    -0.8850     1.4060 hc         1 N6Z       0.047367
     41 H8          -0.4030    -1.6050     1.6220 hc         1 N6Z       0.047367
     42 H9           6.8840     2.0050     1.4560 ha         1 N6Z       0.136000
     43 H10          7.2130    -1.9660    -0.1560 ha         1 N6Z       0.122000
     44 H11          4.9600    -1.7680    -1.0780 ha         1 N6Z       0.122000
     45 H12          9.0450    -1.1230     1.0330 hc         1 N6Z       0.085700
     46 H13         10.5880     0.8050     1.1070 hc         1 N6Z       0.076700
     47 H14          9.1930     1.9660     1.0040 hc         1 N6Z       0.076700
     48 H15          8.2290     1.0060     3.1220 hc         1 N6Z       0.076700
     49 H16          9.6210    -0.1590     3.2320 hc         1 N6Z       0.076700
     50 H17         -6.2310    -1.9900     1.5860 hn         1 N6Z       0.495000
     51 H18         -5.7700    -0.6490     0.6280 hn         1 N6Z       0.495000
     52 H19          2.8020    -1.4290    -0.1580 hn         1 N6Z       0.161000
     53 H20         -3.3370     2.9810     0.4770 h1         1 N6Z       0.068700
     54 H21         -3.3600     2.3430    -1.1530 h1         1 N6Z       0.068700
     55 H22         -6.3000     0.7970    -1.3260 h1         1 N6Z       0.038367
     56 H23         -6.6230     2.5090    -1.6240 h1         1 N6Z       0.038367
     57 H24         -5.1310     1.7800    -2.1900 h1         1 N6Z       0.038367
     58 H25         -7.6990     3.0610     0.2260 hc         1 N6Z       0.053200
     59 H26         -7.6350     1.3580     0.5540 hc         1 N6Z       0.053200
     60 H27         -7.6860     1.8220     3.0360 hc         1 N6Z       0.042700
     61 H28         -7.7510     3.5500     2.7020 hc         1 N6Z       0.042700
     62 H29         -9.0740     2.5050     2.1980 hc         1 N6Z       0.042700
     63 F18         -0.6460    -0.3860    -4.3600 f          1 N6Z      -0.176000
     64 C15         -3.1040     0.8720     0.3870 c3         1 N6Z       0.128600
     65 C16          0.4900    -1.6260     1.0020 c3         1 N6Z      -0.045800
     66 C19          3.2760     0.3790    -0.9500 c          1 N6Z       0.627700
@<TRIPOS>BOND
     1     1    14 ar  
     2     1    15 ar  
     3     1    34 1   
     4     2     3 ar  
     5     2    22 ar  
     6     2    35 1   
     7     3     4 ar  
     8     3    63 1   
     9     4    19 ar  
    10     4    36 1   
    11     5     6 ar  
    12     5    10 ar  
    13     5    66 1   
    14     6     7 ar  
    15     6    26 1   
    16     7     8 ar  
    17     7    42 1   
    18     8     9 ar  
    19     8    11 1   
    20     9    10 ar  
    21     9    43 1   
    22    10    44 1   
    23    11    12 1   
    24    11    13 1   
    25    11    45 1   
    26    12    13 1   
    27    12    46 1   
    28    12    47 1   
    29    13    48 1   
    30    13    49 1   
    31    14    18 ar  
    32    15    16 ar  
    33    16    17 ar  
    34    16    20 1   
    35    17    18 ar  
    36    17    23 1   
    37    18    19 1   
    38    19    21 ar  
    39    20    50 1   
    40    20    51 1   
    41    21    22 ar  
    42    21    65 1   
    43    22    24 1   
    44    23    64 1   
    45    24    52 1   
    46    24    66 1   
    47    25    66 2   
    48    27    28 1   
    49    27    53 1   
    50    27    54 1   
    51    27    64 1   
    52    28    29 1   
    53    28    30 1   
    54    29    31 2   
    55    29    32 1   
    56    30    55 1   
    57    30    56 1   
    58    30    57 1   
    59    32    33 1   
    60    32    58 1   
    61    32    59 1   
    62    33    60 1   
    63    33    61 1   
    64    33    62 1   
    65    37    64 1   
    66    38    64 1   
    67    39    65 1   
    68    40    65 1   
    69    41    65 1   
@<TRIPOS>SUBSTRUCTURE
     1 N6Z         1 TEMP              0 ****  ****    0 ROOT
