@<TRIPOS>MOLECULE
N6Z
   66    69     1     0     0
SMALL
No Charge or Current Charge


@<TRIPOS>ATOM
      1 C2          -2.7080    -4.5020     0.2710 ca         1 N6Z       0.159900
      2 C11          0.6970     0.1530    -2.5290 ca         1 N6Z      -0.141000
      3 C12         -0.5870    -0.0620    -3.0370 ca         1 N6Z       0.176000
      4 C13         -1.4900    -0.8770    -2.3520 ca         1 N6Z      -0.132000
      5 C20          4.6900     0.5040    -0.2810 ca         1 N6Z      -0.210600
      6 C22          5.7210     1.4750    -0.3230 ca         1 N6Z       0.229000
      7 C23          6.9330     1.2740     0.3580 ca         1 N6Z      -0.168000
      8 C24          7.1590     0.1020     1.1010 ca         1 N6Z       0.012700
      9 C25          6.1450    -0.8680     1.1480 ca         1 N6Z      -0.134000
     10 C26          4.9290    -0.6760     0.4710 ca         1 N6Z      -0.058000
     11 C28          8.4550    -0.1340     1.8400 cx         1 N6Z      -0.104400
     12 C29          9.7920     0.3210     1.2950 cx         1 N6Z      -0.114900
     13 C30          9.2130     0.9850     2.5210 cx         1 N6Z      -0.114900
     14 N1          -1.7830    -3.6700    -0.2530 nb         1 N6Z      -0.206000
     15 N3          -3.9730    -4.1850     0.6160 nb         1 N6Z      -0.260000
     16 C4          -4.3380    -2.9110     0.4180 ca         1 N6Z       0.366900
     17 C5          -3.4500    -1.9520    -0.1140 ca         1 N6Z      -0.061900
     18 C6          -2.1380    -2.3830    -0.4590 cp         1 N6Z       0.176500
     19 C7          -1.1320    -1.5000    -1.1340 cp         1 N6Z      -0.107500
     20 N8          -5.6220    -2.6070     0.7660 nv         1 N6Z      -1.056900
     21 C9           0.1720    -1.2580    -0.5990 ca         1 N6Z      -0.086300
     22 C10          1.0880    -0.4310    -1.3050 ca         1 N6Z      -0.016000
     23 O14         -3.8480    -0.6450    -0.3390 os         1 N6Z      -0.357100
     24 N17          2.3990    -0.2430    -0.7770 ns         1 N6Z      -0.161000
     25 O21          3.1880     1.6670    -1.7650 o          1 N6Z      -0.555100
     26 F27          5.5780     2.6320    -1.0070 f          1 N6Z      -0.158000
     27 C31         -3.7720     1.7730    -0.1260 c3         1 N6Z       0.104000
     28 N32         -5.2400     1.9600     0.0270 n          1 N6Z      -0.415800
     29 C33         -5.7700     2.6160     1.1640 c          1 N6Z       0.593100
     30 C34         -6.1040     1.5020    -1.0860 c3         1 N6Z       0.098300
     31 O35         -5.0290     3.0140     2.0550 o          1 N6Z      -0.600100
     32 C36         -7.3010     2.8040     1.2630 c3         1 N6Z      -0.153400
     33 C37         -7.8130     3.5190     2.5350 c3         1 N6Z      -0.078100
     34 H1          -2.4020    -5.5350     0.4290 h5         1 N6Z       0.049100
     35 H2           1.3780     0.7660    -3.1090 ha         1 N6Z       0.150000
     36 H3          -2.4790    -1.0400    -2.7730 ha         1 N6Z       0.141000
     37 H4          -3.4970     0.3350     1.4810 h1         1 N6Z       0.053200
     38 H5          -2.1550     0.4120     0.3220 h1         1 N6Z       0.053200
     39 H6           1.1250    -2.8010     0.6140 hc         1 N6Z       0.047367
     40 H7           1.2300    -1.1810     1.3280 hc         1 N6Z       0.047367
     41 H8          -0.2770    -2.0560     1.3980 hc         1 N6Z       0.047367
     42 H9           7.6940     2.0460     0.3000 ha         1 N6Z       0.136000
     43 H10          6.2960    -1.7840     1.7140 ha         1 N6Z       0.122000
     44 H11          4.1870    -1.4690     0.5400 ha         1 N6Z       0.122000
     45 H12          8.4590    -1.0900     2.3610 hc         1 N6Z       0.085700
     46 H13         10.6440    -0.3410     1.4330 hc         1 N6Z       0.076700
     47 H14          9.8070     0.8880     0.3680 hc         1 N6Z       0.076700
     48 H15          8.8380     2.0010     2.4210 hc         1 N6Z       0.076700
     49 H16          9.6770     0.7690     3.4810 hc         1 N6Z       0.076700
     50 H17         -6.2830    -3.3670     0.9080 hn         1 N6Z       0.495000
     51 H18         -5.9980    -1.7150     0.4570 hn         1 N6Z       0.495000
     52 H19          2.6650    -0.9430    -0.1000 hn         1 N6Z       0.161000
     53 H20         -3.2410     2.5870     0.3840 h1         1 N6Z       0.068700
     54 H21         -3.5070     1.8490    -1.1880 h1         1 N6Z       0.068700
     55 H22         -6.8380     0.7760    -0.7160 h1         1 N6Z       0.038367
     56 H23         -6.6280     2.3590    -1.5290 h1         1 N6Z       0.038367
     57 H24         -5.5020     1.0200    -1.8660 h1         1 N6Z       0.038367
     58 H25         -7.6420     3.3170     0.3570 hc         1 N6Z       0.053200
     59 H26         -7.7740     1.8230     1.1440 hc         1 N6Z       0.053200
     60 H27         -7.5330     2.9590     3.4350 hc         1 N6Z       0.042700
     61 H28         -7.3930     4.5290     2.6090 hc         1 N6Z       0.042700
     62 H29         -8.9060     3.6030     2.5120 hc         1 N6Z       0.042700
     63 F18         -0.9500     0.5080    -4.2070 f          1 N6Z      -0.176000
     64 C15         -3.2470     0.4260     0.4160 c3         1 N6Z       0.128600
     65 C16          0.5860    -1.8570     0.7530 c3         1 N6Z      -0.045800
     66 C19          3.3760     0.7160    -1.0170 c          1 N6Z       0.627700
@<TRIPOS>BOND
     1     1    14 ar  
     2     1    15 ar  
     3     1    34 1   
     4     2     3 ar  
     5     2    22 ar  
     6     2    35 1   
     7     3     4 ar  
     8     3    63 1   
     9     4    19 ar  
    10     4    36 1   
    11     5     6 ar  
    12     5    10 ar  
    13     5    66 1   
    14     6     7 ar  
    15     6    26 1   
    16     7     8 ar  
    17     7    42 1   
    18     8     9 ar  
    19     8    11 1   
    20     9    10 ar  
    21     9    43 1   
    22    10    44 1   
    23    11    12 1   
    24    11    13 1   
    25    11    45 1   
    26    12    13 1   
    27    12    46 1   
    28    12    47 1   
    29    13    48 1   
    30    13    49 1   
    31    14    18 ar  
    32    15    16 ar  
    33    16    17 ar  
    34    16    20 1   
    35    17    18 ar  
    36    17    23 1   
    37    18    19 1   
    38    19    21 ar  
    39    20    50 1   
    40    20    51 1   
    41    21    22 ar  
    42    21    65 1   
    43    22    24 1   
    44    23    64 1   
    45    24    52 1   
    46    24    66 1   
    47    25    66 2   
    48    27    28 1   
    49    27    53 1   
    50    27    54 1   
    51    27    64 1   
    52    28    29 1   
    53    28    30 1   
    54    29    31 2   
    55    29    32 1   
    56    30    55 1   
    57    30    56 1   
    58    30    57 1   
    59    32    33 1   
    60    32    58 1   
    61    32    59 1   
    62    33    60 1   
    63    33    61 1   
    64    33    62 1   
    65    37    64 1   
    66    38    64 1   
    67    39    65 1   
    68    40    65 1   
    69    41    65 1   
@<TRIPOS>SUBSTRUCTURE
     1 N6Z         1 TEMP              0 ****  ****    0 ROOT
