@<TRIPOS>MOLECULE
N70
   39    41     1     0     0
SMALL
No Charge or Current Charge


@<TRIPOS>ATOM
      1 O1         -18.2720   -17.1650    29.1470 oh         1 N70      -0.534100
      2 C14        -18.3990   -17.1030    27.7910 ca         1 N70       0.118100
      3 C13        -19.3240   -17.9230    27.1260 ca         1 N70      -0.155500
      4 C12        -19.4460   -17.8500    25.7250 ca         1 N70      -0.098000
      5 C15        -17.6040   -16.2090    27.0600 ca         1 N70      -0.155500
      6 C16        -17.7280   -16.1370    25.6590 ca         1 N70      -0.098000
      7 C11        -18.6430   -16.9670    24.9760 ca         1 N70       0.267000
      8 N3         -18.8070   -16.9280    23.5830 nu         1 N70      -0.938900
      9 C3         -17.9900   -16.5710    22.5190 ca         1 N70       0.423900
     10 C2         -18.5160   -16.5490    21.2270 ca         1 N70      -0.346000
     11 N          -16.7020   -16.2980    22.7580 nb         1 N70      -0.305000
     12 C4         -15.9460   -15.9940    21.6940 ca         1 N70       0.424900
     13 N1         -16.3520   -15.9240    20.4160 nb         1 N70      -0.284000
     14 C1         -17.6460   -16.2100    20.1800 ca         1 N70       0.196300
     15 C          -18.1180   -16.1410    18.7410 c3         1 N70      -0.153400
     16 N2         -14.6140   -15.6610    21.8980 nu         1 N70      -0.931900
     17 C5         -13.7610   -15.6490    23.0110 ca         1 N70       0.274000
     18 C10        -13.9490   -16.4970    24.1250 ca         1 N70      -0.102000
     19 C9         -13.0600   -16.4540    25.2170 ca         1 N70      -0.154000
     20 C8         -11.9700   -15.5690    25.2000 ca         1 N70       0.116100
     21 O          -11.1040   -15.5210    26.2510 oh         1 N70      -0.535100
     22 C7         -11.7650   -14.7340    24.0920 ca         1 N70      -0.154000
     23 C6         -12.6540   -14.7780    23.0020 ca         1 N70      -0.102000
     24 H1         -18.9020   -17.8350    29.4900 ho         1 N70       0.463000
     25 H2         -19.9490   -18.6160    27.6830 ha         1 N70       0.121000
     26 H3         -20.1640   -18.4900    25.2190 ha         1 N70       0.128500
     27 H4         -16.8950   -15.5660    27.5750 ha         1 N70       0.121000
     28 H5         -17.1200   -15.4200    25.1180 ha         1 N70       0.128500
     29 H6         -19.6900   -17.3270    23.2660 hn         1 N70       0.497000
     30 H7         -19.5600   -16.7790    21.0360 ha         1 N70       0.129000
     31 H8         -17.3620   -16.5380    18.0540 hc         1 N70       0.055033
     32 H9         -19.0350   -16.7240    18.5940 hc         1 N70       0.055033
     33 H10        -18.3290   -15.1060    18.4500 hc         1 N70       0.055033
     34 H11        -14.2000   -15.2550    21.0590 hn         1 N70       0.509000
     35 H12        -14.7690   -17.2060    24.1480 ha         1 N70       0.128500
     36 H13        -13.2230   -17.1140    26.0660 ha         1 N70       0.121500
     37 H14        -11.3970   -16.1670    26.9290 ho         1 N70       0.463000
     38 H15        -10.9180   -14.0520    24.0750 ha         1 N70       0.121500
     39 H16        -12.4850   -14.1250    22.1500 ha         1 N70       0.128500
@<TRIPOS>BOND
     1     1     2 1   
     2     1    24 1   
     3     2     3 ar  
     4     2     5 ar  
     5     3     4 ar  
     6     3    25 1   
     7     4     7 ar  
     8     4    26 1   
     9     5     6 ar  
    10     5    27 1   
    11     6     7 ar  
    12     6    28 1   
    13     7     8 1   
    14     8     9 1   
    15     8    29 1   
    16     9    10 ar  
    17     9    11 ar  
    18    10    14 ar  
    19    10    30 1   
    20    11    12 ar  
    21    12    13 ar  
    22    12    16 1   
    23    13    14 ar  
    24    14    15 1   
    25    15    31 1   
    26    15    32 1   
    27    15    33 1   
    28    16    17 1   
    29    16    34 1   
    30    17    18 ar  
    31    17    23 ar  
    32    18    19 ar  
    33    18    35 1   
    34    19    20 ar  
    35    19    36 1   
    36    20    21 1   
    37    20    22 ar  
    38    21    37 1   
    39    22    23 ar  
    40    22    38 1   
    41    23    39 1   
@<TRIPOS>SUBSTRUCTURE
     1 N70         1 TEMP              0 ****  ****    0 ROOT
