@<TRIPOS>MOLECULE
N70
   39    41     1     0     0
SMALL
abcg2


@<TRIPOS>ATOM
      1 O1         -17.8120   -17.3150    28.9850 oh         1 N70      -0.534100
      2 C14        -18.0780   -17.1970    27.6670 ca         1 N70       0.118100
      3 C13        -19.1140   -17.8790    27.0370 ca         1 N70      -0.155500
      4 C12        -19.3240   -17.7240    25.6760 ca         1 N70      -0.098000
      5 C15        -17.2780   -16.3460    26.9100 ca         1 N70      -0.155500
      6 C16        -17.5030   -16.1770    25.5530 ca         1 N70      -0.098000
      7 C11        -18.5260   -16.8760    24.9110 ca         1 N70       0.267000
      8 N3         -18.8360   -16.7340    23.5510 nu         1 N70      -0.938900
      9 C3         -18.0080   -16.4990    22.5030 ca         1 N70       0.423900
     10 C2         -18.5360   -16.4430    21.2040 ca         1 N70      -0.346000
     11 N          -16.7090   -16.3300    22.7290 nb         1 N70      -0.305000
     12 C4         -15.9410   -16.1040    21.6720 ca         1 N70       0.424900
     13 N1         -16.3380   -16.0320    20.4000 nb         1 N70      -0.284000
     14 C1         -17.6420   -16.2030    20.1790 ca         1 N70       0.196300
     15 C          -18.1150   -16.1180    18.7610 c3         1 N70      -0.153400
     16 N2         -14.6050   -15.9150    21.8570 nu         1 N70      -0.931900
     17 C5         -13.8810   -15.7990    23.0490 ca         1 N70       0.274000
     18 C10        -14.1830   -16.4950    24.2180 ca         1 N70      -0.102000
     19 C9         -13.4030   -16.3370    25.3550 ca         1 N70      -0.154000
     20 C8         -12.2910   -15.5030    25.3490 ca         1 N70       0.116100
     21 O          -11.5030   -15.3160    26.4300 oh         1 N70      -0.535100
     22 C7         -11.9670   -14.8270    24.1760 ca         1 N70      -0.154000
     23 C6         -12.7570   -14.9700    23.0490 ca         1 N70      -0.102000
     24 H1         -18.4230   -17.9380    29.3950 ho         1 N70       0.463000
     25 H2         -19.7580   -18.5440    27.6010 ha         1 N70       0.121000
     26 H3         -20.1290   -18.2760    25.2030 ha         1 N70       0.128500
     27 H4         -16.4740   -15.7990    27.3870 ha         1 N70       0.121000
     28 H5         -16.8690   -15.5030    25.0000 ha         1 N70       0.128500
     29 H6         -19.7860   -16.9630    23.3030 hn         1 N70       0.497000
     30 H7         -19.5920   -16.5810    21.0140 ha         1 N70       0.129000
     31 H8         -17.2830   -15.9490    18.0810 hc         1 N70       0.055033
     32 H9         -18.6250   -17.0360    18.4650 hc         1 N70       0.055033
     33 H10        -18.8310   -15.3030    18.6410 hc         1 N70       0.055033
     34 H11        -14.1170   -15.6490    21.0160 hn         1 N70       0.509000
     35 H12        -15.0340   -17.1560    24.2570 ha         1 N70       0.128500
     36 H13        -13.6710   -16.8850    26.2520 ha         1 N70       0.121500
     37 H14        -11.8300   -15.8330    27.1750 ho         1 N70       0.463000
     38 H15        -11.1020   -14.1760    24.1490 ha         1 N70       0.121500
     39 H16        -12.4940   -14.4220    22.1520 ha         1 N70       0.128500
@<TRIPOS>BOND
     1     1     2 1   
     2     1    24 1   
     3     2     3 ar  
     4     2     5 ar  
     5     3     4 ar  
     6     3    25 1   
     7     4     7 ar  
     8     4    26 1   
     9     5     6 ar  
    10     5    27 1   
    11     6     7 ar  
    12     6    28 1   
    13     7     8 1   
    14     8     9 1   
    15     8    29 1   
    16     9    10 ar  
    17     9    11 ar  
    18    10    14 ar  
    19    10    30 1   
    20    11    12 ar  
    21    12    13 ar  
    22    12    16 1   
    23    13    14 ar  
    24    14    15 1   
    25    15    31 1   
    26    15    32 1   
    27    15    33 1   
    28    16    17 1   
    29    16    34 1   
    30    17    18 ar  
    31    17    23 ar  
    32    18    19 ar  
    33    18    35 1   
    34    19    20 ar  
    35    19    36 1   
    36    20    21 1   
    37    20    22 ar  
    38    21    37 1   
    39    22    23 ar  
    40    22    38 1   
    41    23    39 1   
@<TRIPOS>SUBSTRUCTURE
     1 N70         1 TEMP              0 ****  ****    0 ROOT
