@<TRIPOS>MOLECULE
N71
   36    37     1     0     0
SMALL
bcc


@<TRIPOS>ATOM
      1 N1          -0.8380    -0.6370     1.7680 ns         1 N71      -0.588900
      2 C4          -1.6750    -0.8460     0.7230 c          1 N71       0.792100
      3 C5           0.5010    -1.1640     1.7730 c3         1 N71       0.149000
      4 C6           1.4450    -0.2990     0.9340 c3         1 N71      -0.230600
      5 C7           4.0330     0.1680    -0.0360 ca         1 N71      -0.266500
      6 C8           4.1490    -0.0580    -1.4010 ca         1 N71      -0.034000
      7 C10          5.4510     1.9570    -1.5750 ca         1 N71      -0.073000
      8 N           -2.8940    -0.2180     0.8590 ns         1 N71      -0.565400
      9 O           -1.3870    -1.5340    -0.2390 o          1 N71      -0.573100
     10 C1          -5.8670     0.1380    -0.9580 cc         1 N71       0.323000
     11 C11          5.3260     2.1690    -0.2080 ca         1 N71      -0.146000
     12 C12          4.6150     1.2720     0.5740 ca         1 N71      -0.034000
     13 C2          -5.1670     0.4130     0.1650 cd         1 N71      -0.444600
     14 C3          -3.9240    -0.2430    -0.0490 cd         1 N71       0.475200
     15 C9           4.8660     0.8470    -2.1700 ca         1 N71      -0.146000
     16 N2          -3.8900    -0.8540    -1.2020 nc         1 N71      -0.358300
     17 O3          -5.1190    -0.6100    -1.7700 os         1 N71      -0.122100
     18 S            3.1040    -0.9730     0.9530 sy         1 N71       1.080300
     19 H1          -1.0760     0.0270     2.4870 hn         1 N71       0.311500
     20 H2           0.8390    -1.1950     2.8070 h1         1 N71       0.076700
     21 H3           0.4920    -2.1870     1.3990 h1         1 N71       0.076700
     22 H4           1.1290    -0.2600    -0.1080 h1         1 N71       0.105200
     23 H5           1.5050     0.7170     1.3250 h1         1 N71       0.105200
     24 H6           3.6960    -0.9250    -1.8630 ha         1 N71       0.157000
     25 H7           6.0090     2.6600    -2.1790 ha         1 N71       0.136000
     26 H8          -3.0790     0.3040     1.7020 hn         1 N71       0.320500
     27 H9          -7.1920     1.1170    -2.3100 hc         1 N71       0.063367
     28 H10         -7.8210    -0.3820    -1.6340 hc         1 N71       0.063367
     29 H11         -7.7370     1.0700    -0.6320 hc         1 N71       0.063367
     30 H12          5.7850     3.0330     0.2530 ha         1 N71       0.139500
     31 H13          4.5220     1.4340     1.6390 ha         1 N71       0.157000
     32 H14         -5.4750     0.9900     1.0210 ha         1 N71       0.167000
     33 H15          4.9690     0.6810    -3.2330 ha         1 N71       0.139500
     34 C           -7.2280     0.5050    -1.4090 c3         1 N71      -0.139400
     35 O1           3.6040    -0.9170     2.3260 o          1 N71      -0.589800
     36 O2           3.0770    -2.2670     0.2730 o          1 N71      -0.589800
@<TRIPOS>BOND
     1     1     2 1   
     2     1     3 1   
     3     1    19 1   
     4     2     8 1   
     5     2     9 2   
     6     3     4 1   
     7     3    20 1   
     8     3    21 1   
     9     4    18 1   
    10     4    22 1   
    11     4    23 1   
    12     5     6 ar  
    13     5    12 ar  
    14     5    18 1   
    15     6    15 ar  
    16     6    24 1   
    17     7    11 ar  
    18     7    15 ar  
    19     7    25 1   
    20     8    14 1   
    21     8    26 1   
    22    10    13 2   
    23    10    17 1   
    24    10    34 1   
    25    11    12 ar  
    26    11    30 1   
    27    12    31 1   
    28    13    14 1   
    29    13    32 1   
    30    14    16 2   
    31    15    33 1   
    32    16    17 1   
    33    18    35 2   
    34    18    36 2   
    35    27    34 1   
    36    28    34 1   
    37    29    34 1   
@<TRIPOS>SUBSTRUCTURE
     1 N71         1 TEMP              0 ****  ****    0 ROOT
