@<TRIPOS>MOLECULE
N71
   36    37     1     0     0
SMALL
No Charge or Current Charge


@<TRIPOS>ATOM
      1 N1          -0.8690    -0.6870     1.6090 ns         1 N71      -0.521900
      2 C4          -1.6870    -0.9390     0.5380 c          1 N71       0.658100
      3 C5           0.4930    -1.1990     1.7470 c3         1 N71       0.149000
      4 C6           1.4730    -0.3490     0.9280 c3         1 N71      -0.341400
      5 C7           4.0950     0.1940     0.0460 ca         1 N71      -0.266500
      6 C8           4.2810    -0.0910    -1.3230 ca         1 N71      -0.016000
      7 C10          5.5350     1.9830    -1.5870 ca         1 N71      -0.055000
      8 N           -2.8980    -0.3160     0.6570 ns         1 N71      -0.498400
      9 O           -1.3550    -1.6430    -0.4000 o          1 N71      -0.573100
     10 C1          -5.9720     0.1500    -0.9480 cc         1 N71       0.213300
     11 C11          5.3480     2.2690    -0.2240 ca         1 N71      -0.128000
     12 C12          4.6290     1.3800     0.5940 ca         1 N71      -0.016000
     13 C2          -5.1220     0.3680     0.0870 cd         1 N71      -0.296000
     14 C3          -3.9550    -0.3430    -0.2150 cd         1 N71       0.409900
     15 C9           5.0010     0.8040    -2.1350 ca         1 N71      -0.128000
     16 N2          -4.0310    -0.9840    -1.3660 nc         1 N71      -0.358300
     17 O3          -5.3520    -0.6680    -1.8610 os         1 N71      -0.077700
     18 S            3.1610    -0.9450     1.0890 sy         1 N71       1.049500
     19 H1          -1.2330    -0.0950     2.3450 hn         1 N71       0.311500
     20 H2           0.7710    -1.1760     2.8110 h1         1 N71       0.076700
     21 H3           0.5220    -2.2460     1.4120 h1         1 N71       0.076700
     22 H4           1.2200    -0.3860    -0.1370 h1         1 N71       0.105200
     23 H5           1.4640     0.6910     1.2700 h1         1 N71       0.105200
     24 H6           3.8710    -0.9990    -1.7640 ha         1 N71       0.139000
     25 H7           6.0910     2.6730    -2.2170 ha         1 N71       0.118000
     26 H8          -3.0100     0.2290     1.4980 hn         1 N71       0.320500
     27 H9          -7.4060     1.2180    -2.1370 hc         1 N71       0.063367
     28 H10         -8.0590    -0.2080    -1.3050 hc         1 N71       0.063367
     29 H11         -7.7180     1.2740    -0.3910 hc         1 N71       0.063367
     30 H12          5.7590     3.1830     0.1990 ha         1 N71       0.121500
     31 H13          4.4900     1.6180     1.6480 ha         1 N71       0.139000
     32 H14         -5.3130     0.9710     0.9660 ha         1 N71       0.149000
     33 H15          5.1440     0.5830    -3.1900 ha         1 N71       0.121500
     34 C           -7.3660     0.6360    -1.2090 c3         1 N71      -0.139400
     35 O1           3.5500    -0.7350     2.4890 o          1 N71      -0.519000
     36 O2           3.1970    -2.2820     0.4810 o          1 N71      -0.519000
@<TRIPOS>BOND
     1     1     2 1   
     2     1     3 1   
     3     1    19 1   
     4     2     8 1   
     5     2     9 2   
     6     3     4 1   
     7     3    20 1   
     8     3    21 1   
     9     4    18 1   
    10     4    22 1   
    11     4    23 1   
    12     5     6 ar  
    13     5    12 ar  
    14     5    18 1   
    15     6    15 ar  
    16     6    24 1   
    17     7    11 ar  
    18     7    15 ar  
    19     7    25 1   
    20     8    14 1   
    21     8    26 1   
    22    10    13 2   
    23    10    17 1   
    24    10    34 1   
    25    11    12 ar  
    26    11    30 1   
    27    12    31 1   
    28    13    14 1   
    29    13    32 1   
    30    14    16 2   
    31    15    33 1   
    32    16    17 1   
    33    18    35 2   
    34    18    36 2   
    35    27    34 1   
    36    28    34 1   
    37    29    34 1   
@<TRIPOS>SUBSTRUCTURE
     1 N71         1 TEMP              0 ****  ****    0 ROOT
