@<TRIPOS>MOLECULE
N72
   38    37     1     0     0
SMALL
No Charge or Current Charge


@<TRIPOS>ATOM
      1 OAB          6.6520     1.2730    -1.2680 oh         1 N72      -0.741000
      2 CAF          5.4630     1.5790    -0.5110 c3         1 N72       0.114600
      3 CAG          4.6020     0.2960    -0.3640 c3         1 N72       0.136300
      4 OAC          4.4660    -0.2790    -1.6780 oh         1 N72      -0.723000
      5 CAH          3.1890     0.5590     0.2420 c3         1 N72       0.145300
      6 OAM          2.4040     1.1600    -0.7940 oh         1 N72      -0.696000
      7 CAI          2.4870    -0.7330     0.7600 c3         1 N72       0.028300
      8 OAD          3.2560    -1.3260     1.8510 oh         1 N72      -0.715000
      9 CAJ          1.0120    -0.4520     1.1810 c          1 N72       0.558100
     10 OAE          0.7430    -0.0620     2.3190 o          1 N72      -0.534100
     11 CAK         -0.0890    -0.7830     0.1200 c3         1 N72       0.093800
     12 N           -1.4830    -0.3620     0.4830 n7         1 N72      -0.831400
     13 CA          -2.5590    -0.7770    -0.4820 c3         1 N72       0.025500
     14 C           -2.7950    -2.3390    -0.5600 c          1 N72       0.690000
     15 O           -3.0000    -2.9550     0.4800 o          1 N72      -0.753500
     16 CB          -3.8920    -0.0520    -0.1450 c3         1 N72      -0.033400
     17 CG          -3.8640     1.4860    -0.3540 c3         1 N72      -0.195400
     18 CD          -5.2610     2.0780    -0.0960 c          1 N72       0.712000
     19 OE1         -5.5460     2.4190     1.0420 o          1 N72      -0.768000
     20 OE2         -6.0450     2.1380    -1.0310 o          1 N72      -0.768000
     21 OXT         -2.6840    -2.8930    -1.6460 o          1 N72      -0.753500
     22 H1           7.2150     2.0850    -1.2700 ho         1 N72       0.500000
     23 H2           5.7250     1.9500     0.4900 h1         1 N72       0.039700
     24 H3           4.8790     2.3620    -1.0140 h1         1 N72       0.039700
     25 H4           5.1490    -0.3920     0.2960 h1         1 N72       0.057700
     26 H5           5.3430    -0.0800    -2.0940 ho         1 N72       0.511000
     27 H6           3.2920     1.2530     1.0890 h1         1 N72       0.075700
     28 H7           2.8340     0.8140    -1.6180 ho         1 N72       0.514000
     29 H8           2.4370    -1.4400    -0.0800 h1         1 N72       0.098700
     30 H9           2.9220    -0.9350     2.6960 ho         1 N72       0.507000
     31 H10          0.2100    -0.3140    -0.8260 h1         1 N72       0.047200
     32 H11         -0.0460    -1.8690    -0.0380 h1         1 N72       0.047200
     33 H12         -1.7130    -0.7690     1.4010 hn         1 N72       0.425000
     34 H14         -2.2690    -0.4570    -1.4920 h1         1 N72       0.028700
     35 H15         -4.6790    -0.4710    -0.7840 hc         1 N72       0.043200
     36 H16         -4.1820    -0.2780     0.8890 hc         1 N72       0.043200
     37 H17         -3.1420     1.8830     0.3710 hc         1 N72       0.015700
     38 H18         -3.5690     1.6420    -1.3990 hc         1 N72       0.015700
@<TRIPOS>BOND
     1     1     2 1   
     2     1    22 1   
     3     2     3 1   
     4     2    23 1   
     5     2    24 1   
     6     3     4 1   
     7     3     5 1   
     8     3    25 1   
     9     4    26 1   
    10     5     6 1   
    11     5     7 1   
    12     5    27 1   
    13     6    28 1   
    14     7     8 1   
    15     7     9 1   
    16     7    29 1   
    17     8    30 1   
    18     9    10 2   
    19     9    11 1   
    20    11    12 1   
    21    11    31 1   
    22    11    32 1   
    23    12    13 1   
    24    12    33 1   
    25    13    14 1   
    26    13    16 1   
    27    13    34 1   
    28    14    15 1   
    29    14    21 1   
    30    16    17 1   
    31    16    35 1   
    32    16    36 1   
    33    17    18 1   
    34    17    37 1   
    35    17    38 1   
    36    18    19 1   
    37    18    20 1   
@<TRIPOS>SUBSTRUCTURE
     1 N72         1 TEMP              0 ****  ****    0 ROOT
