@<TRIPOS>MOLECULE
N72
   38    37     1     0     0
SMALL
bcc


@<TRIPOS>ATOM
      1 OAB          6.4560     1.4850    -0.9360 oh         1 N72      -0.618800
      2 CAF          5.1030     1.7210    -0.6060 c3         1 N72       0.091400
      3 CAG          4.4830     0.3790    -0.2500 c3         1 N72       0.113100
      4 OAC          4.5190    -0.5140    -1.3420 oh         1 N72      -0.600800
      5 CAH          3.0220     0.5400     0.1580 c3         1 N72       0.122100
      6 OAM          2.2350     1.0630    -0.8850 oh         1 N72      -0.573800
      7 CAI          2.4150    -0.7790     0.6840 c3         1 N72       0.005100
      8 OAD          3.1390    -1.2940     1.7670 oh         1 N72      -0.592800
      9 CAJ          0.9650    -0.5110     1.0870 c          1 N72       0.558100
     10 OAE          0.7330     0.0010     2.1590 o          1 N72      -0.534100
     11 CAK         -0.1040    -0.9390     0.1290 c3         1 N72       0.093800
     12 N           -1.4110    -0.4610     0.4820 n7         1 N72      -0.776200
     13 CA          -2.4360    -0.8580    -0.4680 c3         1 N72       0.025500
     14 C           -2.7480    -2.3740    -0.4720 c          1 N72       0.900600
     15 O           -2.5040    -3.0060     0.5780 o          1 N72      -0.858800
     16 CB          -3.7270    -0.0810    -0.1930 c3         1 N72      -0.033400
     17 CG          -3.5700     1.4220    -0.3590 c3         1 N72      -0.195400
     18 CD          -4.8120     2.2650    -0.0340 c          1 N72       0.922600
     19 OE1         -5.6800     1.7600     0.7090 o          1 N72      -0.873300
     20 OE2         -4.8430     3.4170    -0.5190 o          1 N72      -0.873300
     21 OXT         -3.2570    -2.8360    -1.5140 o          1 N72      -0.858800
     22 H1           6.8120     2.2760    -1.3490 ho         1 N72       0.401000
     23 H2           5.0060     2.3960     0.2540 h1         1 N72       0.039700
     24 H3           4.5600     2.1720    -1.4440 h1         1 N72       0.039700
     25 H4           5.0340    -0.0260     0.6100 h1         1 N72       0.057700
     26 H5           5.3870    -0.4540    -1.7560 ho         1 N72       0.412000
     27 H6           2.9810     1.2710     0.9740 h1         1 N72       0.075700
     28 H7           2.4090     0.5440    -1.6790 ho         1 N72       0.415000
     29 H8           2.4430    -1.5350    -0.1060 h1         1 N72       0.098700
     30 H9           3.0100    -0.7090     2.5240 ho         1 N72       0.408000
     31 H10          0.1740    -0.5700    -0.8640 h1         1 N72       0.047200
     32 H11         -0.0130    -2.0380     0.0550 h1         1 N72       0.047200
     33 H12         -1.6650    -0.8430     1.3870 hn         1 N72       0.369800
     34 H14         -2.0830    -0.5810    -1.4690 h1         1 N72       0.028700
     35 H15         -4.5030    -0.4490    -0.8680 hc         1 N72       0.043200
     36 H16         -4.0740    -0.3070     0.8200 hc         1 N72       0.043200
     37 H17         -2.7520     1.7650     0.2840 hc         1 N72       0.015700
     38 H18         -3.2420     1.6450    -1.3800 hc         1 N72       0.015700
@<TRIPOS>BOND
     1     1     2 1   
     2     1    22 1   
     3     2     3 1   
     4     2    23 1   
     5     2    24 1   
     6     3     4 1   
     7     3     5 1   
     8     3    25 1   
     9     4    26 1   
    10     5     6 1   
    11     5     7 1   
    12     5    27 1   
    13     6    28 1   
    14     7     8 1   
    15     7     9 1   
    16     7    29 1   
    17     8    30 1   
    18     9    10 2   
    19     9    11 1   
    20    11    12 1   
    21    11    31 1   
    22    11    32 1   
    23    12    13 1   
    24    12    33 1   
    25    13    14 1   
    26    13    16 1   
    27    13    34 1   
    28    14    15 1   
    29    14    21 1   
    30    16    17 1   
    31    16    35 1   
    32    16    36 1   
    33    17    18 1   
    34    17    37 1   
    35    17    38 1   
    36    18    19 1   
    37    18    20 1   
@<TRIPOS>SUBSTRUCTURE
     1 N72         1 TEMP              0 ****  ****    0 ROOT
