@<TRIPOS>MOLECULE
N73
   52    53     1     0     0
SMALL
abcg2


@<TRIPOS>ATOM
      1 OSB         15.4670   -20.4670    19.3340 o          1 N73      -0.531000
      2 S2          16.2560   -19.6080    18.4880 sy         1 N73       1.141600
      3 OSA         15.8490   -19.4470    17.1100 o          1 N73      -0.531000
      4 N1          17.8590   -20.1660    18.6160 n3         1 N73      -0.473000
      5 ON2         17.8720   -21.5410    18.3280 os         1 N73      -0.228300
      6 C13         18.0690   -22.3410    19.5370 c3         1 N73       0.163300
      7 C44         17.6000   -23.7290    19.1510 c3         1 N73      -0.106100
      8 C15         19.5150   -22.2980    19.9870 c3         1 N73      -0.106100
      9 C16         18.8350   -19.3370    17.8610 c3         1 N73       0.121500
     10 C18         19.8150   -20.1290    16.9640 c3         1 N73      -0.047700
     11 C19         19.0880   -20.6780    15.7370 c3         1 N73      -0.095100
     12 C20         20.9790   -19.2320    16.5280 c3         1 N73      -0.095100
     13 C17         19.5630   -18.4940    18.8870 c          1 N73       0.575500
     14 O8          20.1170   -18.8440    19.8800 o          1 N73      -0.443100
     15 N8          19.5780   -16.9800    18.4860 ne         1 N73      -0.052100
     16 OA8         19.7490   -16.2840    19.4360 o          1 N73      -0.095300
     17 C1          16.4590   -18.0160    19.2200 ca         1 N73      -0.309500
     18 C2          16.2420   -16.8710    18.4560 ca         1 N73      -0.011500
     19 C3          16.3990   -15.6270    19.0440 ca         1 N73      -0.124000
     20 C4          16.7910   -15.5060    20.3820 cp         1 N73       0.039000
     21 C11         17.0000   -16.6760    21.1290 ca         1 N73      -0.124000
     22 C12         16.8280   -17.9250    20.5610 ca         1 N73      -0.011500
     23 C5          17.0000   -14.1770    20.9910 cp         1 N73      -0.059000
     24 C6          18.0350   -13.9710    21.9110 ca         1 N73      -0.087500
     25 C7          18.2430   -12.7190    22.4740 ca         1 N73      -0.112500
     26 C8          17.4160   -11.6520    22.1350 ca         1 N73      -0.097000
     27 C9          16.3810   -11.8460    21.2260 ca         1 N73      -0.112500
     28 C10         16.1770   -13.0960    20.6550 ca         1 N73      -0.087500
     29 H1          17.4180   -21.9220    20.3050 h1         1 N73       0.068700
     30 H2          17.7010   -24.3990    20.0060 hc         1 N73       0.049033
     31 H3          16.5550   -23.7130    18.8400 hc         1 N73       0.049033
     32 H4          18.2070   -24.1240    18.3330 hc         1 N73       0.049033
     33 H5          19.6270   -22.8810    20.9030 hc         1 N73       0.049033
     34 H6          20.1690   -22.7270    19.2240 hc         1 N73       0.049033
     35 H7          19.8320   -21.2760    20.1910 hc         1 N73       0.049033
     36 H8          18.3010   -18.6520    17.1990 h1         1 N73       0.078700
     37 H9          20.2110   -20.9510    17.5600 hc         1 N73       0.074700
     38 H10         18.2500   -21.3140    16.0100 hc         1 N73       0.044367
     39 H11         18.7160   -19.8560    15.1200 hc         1 N73       0.044367
     40 H12         19.7840   -21.2640    15.1340 hc         1 N73       0.044367
     41 H13         21.5890   -18.8970    17.3690 hc         1 N73       0.044367
     42 H14         21.6290   -19.7900    15.8540 hc         1 N73       0.044367
     43 H15         20.6160   -18.3520    15.9920 hc         1 N73       0.044367
     44 H16         15.9650   -16.9580    17.4160 ha         1 N73       0.139500
     45 H17         16.2510   -14.7400    18.4440 ha         1 N73       0.126500
     46 H18         17.2850   -16.6050    22.1690 ha         1 N73       0.126500
     47 H19         16.9880   -18.8200    21.1480 ha         1 N73       0.139500
     48 H20         18.6960   -14.7880    22.1680 ha         1 N73       0.117500
     49 H21         19.0560   -12.5740    23.1750 ha         1 N73       0.116500
     50 H22         17.5770   -10.6770    22.5760 ha         1 N73       0.116000
     51 H23         15.7270   -11.0240    20.9620 ha         1 N73       0.116500
     52 H24         15.3600   -13.2390    19.9600 ha         1 N73       0.117500
@<TRIPOS>BOND
     1     1     2 2   
     2     2     3 2   
     3     2     4 1   
     4     2    17 1   
     5     4     5 1   
     6     4     9 1   
     7     5     6 1   
     8     6     7 1   
     9     6     8 1   
    10     6    29 1   
    11     7    30 1   
    12     7    31 1   
    13     7    32 1   
    14     8    33 1   
    15     8    34 1   
    16     8    35 1   
    17     9    10 1   
    18     9    13 1   
    19     9    36 1   
    20    10    11 1   
    21    10    12 1   
    22    10    37 1   
    23    11    38 1   
    24    11    39 1   
    25    11    40 1   
    26    12    41 1   
    27    12    42 1   
    28    12    43 1   
    29    13    14 2   
    30    13    15 1   
    31    15    16 2   
    32    17    18 ar  
    33    17    22 ar  
    34    18    19 ar  
    35    18    44 1   
    36    19    20 ar  
    37    19    45 1   
    38    20    21 ar  
    39    20    23 1   
    40    21    22 ar  
    41    21    46 1   
    42    22    47 1   
    43    23    24 ar  
    44    23    28 ar  
    45    24    25 ar  
    46    24    48 1   
    47    25    26 ar  
    48    25    49 1   
    49    26    27 ar  
    50    26    50 1   
    51    27    28 ar  
    52    27    51 1   
    53    28    52 1   
@<TRIPOS>SUBSTRUCTURE
     1 N73         1 TEMP              0 ****  ****    0 ROOT
