@<TRIPOS>MOLECULE
N73
   52    53     1     0     0
SMALL
No Charge or Current Charge


@<TRIPOS>ATOM
      1 OSB         15.6250   -20.5410    20.1330 o          1 N73      -0.531000
      2 S2          16.1820   -19.7830    19.0040 sy         1 N73       1.141600
      3 OSA         15.5500   -19.7760    17.6790 o          1 N73      -0.531000
      4 N1          17.8090   -20.3280    18.8040 n3         1 N73      -0.473000
      5 ON2         17.8570   -21.6920    18.2090 os         1 N73      -0.228300
      6 C13         18.0150   -22.7110    19.2200 c3         1 N73       0.163300
      7 C44         17.7060   -24.0590    18.5420 c3         1 N73      -0.106100
      8 C15         19.4500   -22.6580    19.7910 c3         1 N73      -0.106100
      9 C16         18.7710   -19.3880    18.1110 c3         1 N73       0.121500
     10 C18         19.7840   -20.0430    17.0870 c3         1 N73      -0.047700
     11 C19         19.1050   -20.3620    15.7260 c3         1 N73      -0.095100
     12 C20         21.0680   -19.2120    16.8170 c3         1 N73      -0.095100
     13 C17         19.4890   -18.4340    19.1200 c          1 N73       0.575500
     14 O8          19.9470   -18.8290    20.1890 o          1 N73      -0.443100
     15 N8          19.5260   -17.1060    18.6810 ne         1 N73      -0.052100
     16 OA8         19.9320   -16.0860    19.2580 o          1 N73      -0.095300
     17 C1          16.4020   -18.0830    19.5670 ca         1 N73      -0.309500
     18 C2          16.1680   -17.0030    18.6910 ca         1 N73      -0.011500
     19 C3          16.3630   -15.6850    19.1370 ca         1 N73      -0.124000
     20 C4          16.7930   -15.4100    20.4580 cp         1 N73       0.039000
     21 C11         17.0090   -16.5100    21.3250 ca         1 N73      -0.124000
     22 C12         16.8120   -17.8310    20.8900 ca         1 N73      -0.011500
     23 C5          17.0200   -14.0050    20.9220 cp         1 N73      -0.059000
     24 C6          18.0740   -13.6920    21.8180 ca         1 N73      -0.087500
     25 C7          18.2910   -12.3720    22.2510 ca         1 N73      -0.112500
     26 C8          17.4590   -11.3370    21.7970 ca         1 N73      -0.097000
     27 C9          16.4100   -11.6230    20.9090 ca         1 N73      -0.112500
     28 C10         16.1940   -12.9420    20.4750 ca         1 N73      -0.087500
     29 H1          17.2980   -22.5640    20.0380 h1         1 N73       0.068700
     30 H2          17.8010   -24.8810    19.2610 hc         1 N73       0.049033
     31 H3          16.6820   -24.0650    18.1510 hc         1 N73       0.049033
     32 H4          18.3970   -24.2450    17.7110 hc         1 N73       0.049033
     33 H5          19.5860   -23.4390    20.5470 hc         1 N73       0.049033
     34 H6          20.1930   -22.8190    19.0010 hc         1 N73       0.049033
     35 H7          19.6500   -21.6930    20.2700 hc         1 N73       0.049033
     36 H8          18.1700   -18.7140    17.4840 h1         1 N73       0.078700
     37 H9          20.1390   -20.9860    17.5150 hc         1 N73       0.074700
     38 H10         18.2070   -20.9760    15.8460 hc         1 N73       0.044367
     39 H11         18.8110   -19.4380    15.2130 hc         1 N73       0.044367
     40 H12         19.7940   -20.9080    15.0690 hc         1 N73       0.044367
     41 H13         21.6640   -19.0810    17.7280 hc         1 N73       0.044367
     42 H14         21.7090   -19.7240    16.0880 hc         1 N73       0.044367
     43 H15         20.8240   -18.2230    16.4090 hc         1 N73       0.044367
     44 H16         15.8460   -17.1750    17.6650 ha         1 N73       0.139500
     45 H17         16.1980   -14.8670    18.4400 ha         1 N73       0.126500
     46 H18         17.3240   -16.3380    22.3510 ha         1 N73       0.126500
     47 H19         16.9910   -18.6550    21.5810 ha         1 N73       0.139500
     48 H20         18.7390   -14.4760    22.1710 ha         1 N73       0.117500
     49 H21         19.1070   -12.1520    22.9370 ha         1 N73       0.116500
     50 H22         17.6260   -10.3150    22.1320 ha         1 N73       0.116000
     51 H23         15.7620   -10.8220    20.5570 ha         1 N73       0.116500
     52 H24         15.3680   -13.1440    19.7960 ha         1 N73       0.117500
@<TRIPOS>BOND
     1     1     2 2   
     2     2     3 2   
     3     2     4 1   
     4     2    17 1   
     5     4     5 1   
     6     4     9 1   
     7     5     6 1   
     8     6     7 1   
     9     6     8 1   
    10     6    29 1   
    11     7    30 1   
    12     7    31 1   
    13     7    32 1   
    14     8    33 1   
    15     8    34 1   
    16     8    35 1   
    17     9    10 1   
    18     9    13 1   
    19     9    36 1   
    20    10    11 1   
    21    10    12 1   
    22    10    37 1   
    23    11    38 1   
    24    11    39 1   
    25    11    40 1   
    26    12    41 1   
    27    12    42 1   
    28    12    43 1   
    29    13    14 2   
    30    13    15 1   
    31    15    16 2   
    32    17    18 ar  
    33    17    22 ar  
    34    18    19 ar  
    35    18    44 1   
    36    19    20 ar  
    37    19    45 1   
    38    20    21 ar  
    39    20    23 1   
    40    21    22 ar  
    41    21    46 1   
    42    22    47 1   
    43    23    24 ar  
    44    23    28 ar  
    45    24    25 ar  
    46    24    48 1   
    47    25    26 ar  
    48    25    49 1   
    49    26    27 ar  
    50    26    50 1   
    51    27    28 ar  
    52    27    51 1   
    53    28    52 1   
@<TRIPOS>SUBSTRUCTURE
     1 N73         1 TEMP              0 ****  ****    0 ROOT
