@<TRIPOS>MOLECULE
N75
   55    59     1     0     0
SMALL
bcc


@<TRIPOS>ATOM
      1 C1          31.5310    -6.3200    35.4620 ca         1 N75      -0.262000
      2 C2          31.2820    -4.9630    35.6810 ca         1 N75       0.253100
      3 C3          32.2470    -4.1400    36.3300 ca         1 N75      -0.280600
      4 C4          33.4500    -4.6800    36.7590 ca         1 N75      -0.001000
      5 C5          33.7030    -6.0270    36.5490 ca         1 N75      -0.188800
      6 C6          32.7420    -6.8040    35.9090 ca         1 N75       0.117100
      7 C7          34.7930    -6.9270    36.8450 cc         1 N75       0.032100
      8 C8          34.4140    -8.1560    36.3710 cd         1 N75       0.075900
      9 O1          33.1780    -8.0790    35.8070 os         1 N75      -0.187200
     10 C9          35.0470    -9.4580    36.3410 ca         1 N75      -0.040800
     11 C10         36.2390    -9.7110    37.0330 ca         1 N75      -0.074500
     12 C11         36.8410   -10.9500    36.9870 ca         1 N75      -0.187500
     13 C12         36.2690   -11.9900    36.2520 ca         1 N75       0.131100
     14 C13         35.0790   -11.7590    35.5660 ca         1 N75      -0.187500
     15 C14         34.4840   -10.5090    35.6130 ca         1 N75      -0.074500
     16 O2          36.9400   -13.1570    36.2570 os         1 N75      -0.293900
     17 C15         36.4210   -14.2420    35.5370 c3         1 N75       0.058400
     18 C16         35.2120   -14.8560    36.2400 c          1 N75       0.634100
     19 N1          34.4540   -15.6330    35.4500 ns         1 N75      -0.561900
     20 O3          34.9990   -14.6700    37.4240 o          1 N75      -0.558100
     21 C17         33.3290   -16.3600    35.9410 cx         1 N75       0.054700
     22 C18         33.0730   -17.7110    35.3580 cx         1 N75      -0.137900
     23 C19         33.5570   -17.5850    36.7700 cx         1 N75      -0.137900
     24 C20         35.9840    -6.5530    37.4890 cg         1 N75      -0.049300
     25 C21         36.9700    -6.1680    38.0740 ch         1 N75      -0.170000
     26 C22         38.1460    -5.7310    38.7400 ca         1 N75       0.070000
     27 C23         39.1010    -6.6560    39.1740 ca         1 N75      -0.121000
     28 C24         40.2380    -6.2180    39.8310 ca         1 N75      -0.127000
     29 C25         40.4450    -4.8660    40.0680 ca         1 N75      -0.133000
     30 C26         39.4920    -3.9570    39.6320 ca         1 N75       0.027400
     31 CL          39.7370    -2.2660    39.9160 cl         1 N75      -0.118400
     32 C27         38.3470    -4.3670    38.9730 ca         1 N75      -0.101000
     33 C28         31.9520    -2.6760    36.5510 c          1 N75       0.936200
     34 O4          32.7930    -1.9700    37.1090 o          1 N75      -0.790800
     35 O5          30.8190    -2.2770    36.1270 o          1 N75      -0.790800
     36 O6          30.1320    -4.4420    35.2750 oh         1 N75      -0.589100
     37 H1          30.8020    -6.9490    34.9680 ha         1 N75       0.142000
     38 H2          34.1780    -4.0480    37.2510 ha         1 N75       0.153000
     39 H3          36.7070    -8.9340    37.6220 ha         1 N75       0.146000
     40 H4          37.7620   -11.1230    37.5290 ha         1 N75       0.132000
     41 H5          34.5960   -12.5310    34.9820 ha         1 N75       0.132000
     42 H6          33.5650   -10.3670    35.0620 ha         1 N75       0.146000
     43 H7          36.1930   -13.9760    34.4990 h1         1 N75       0.063200
     44 H8          37.2150   -14.9910    35.5040 h1         1 N75       0.063200
     45 H9          34.6460   -15.6670    34.4610 hn         1 N75       0.315500
     46 H10         32.4620   -15.7540    36.1830 h1         1 N75       0.093700
     47 H11         32.0430   -17.9940    35.1840 hc         1 N75       0.076200
     48 H12         33.7700   -18.0790    34.6160 hc         1 N75       0.076200
     49 H13         32.8620   -17.7820    37.5760 hc         1 N75       0.076200
     50 H14         34.5810   -17.8640    36.9780 hc         1 N75       0.076200
     51 H15         38.9460    -7.7120    38.9950 ha         1 N75       0.137000
     52 H16         40.9750    -6.9350    40.1660 ha         1 N75       0.128000
     53 H17         41.3340    -4.5270    40.5830 ha         1 N75       0.138000
     54 H18         37.6130    -3.6460    38.6410 ha         1 N75       0.167000
     55 H20         30.2090    -3.4460    35.5560 ho         1 N75       0.516000
@<TRIPOS>BOND
     1     1     2 ar  
     2     1     6 ar  
     3     1    37 1   
     4     2     3 ar  
     5     2    36 1   
     6     3     4 ar  
     7     3    33 1   
     8     4     5 ar  
     9     4    38 1   
    10     5     6 ar  
    11     5     7 1   
    12     6     9 1   
    13     7     8 2   
    14     7    24 1   
    15     8     9 1   
    16     8    10 1   
    17    10    11 ar  
    18    10    15 ar  
    19    11    12 ar  
    20    11    39 1   
    21    12    13 ar  
    22    12    40 1   
    23    13    14 ar  
    24    13    16 1   
    25    14    15 ar  
    26    14    41 1   
    27    15    42 1   
    28    16    17 1   
    29    17    18 1   
    30    17    43 1   
    31    17    44 1   
    32    18    19 1   
    33    18    20 2   
    34    19    21 1   
    35    19    45 1   
    36    21    22 1   
    37    21    23 1   
    38    21    46 1   
    39    22    23 1   
    40    22    47 1   
    41    22    48 1   
    42    23    49 1   
    43    23    50 1   
    44    24    25 3   
    45    25    26 1   
    46    26    27 ar  
    47    26    32 ar  
    48    27    28 ar  
    49    27    51 1   
    50    28    29 ar  
    51    28    52 1   
    52    29    30 ar  
    53    29    53 1   
    54    30    31 1   
    55    30    32 ar  
    56    32    54 1   
    57    33    34 1   
    58    33    35 1   
    59    36    55 1   
@<TRIPOS>SUBSTRUCTURE
     1 N75         1 TEMP              0 ****  ****    0 ROOT
