@<TRIPOS>MOLECULE
N75
   55    59     1     0     0
SMALL
No Charge or Current Charge


@<TRIPOS>ATOM
      1 C1          31.5490    -6.1180    35.3170 ca         1 N75      -0.244000
      2 C2          31.3040    -4.7660    35.6140 ca         1 N75       0.253100
      3 C3          32.2450    -3.9870    36.3450 ca         1 N75      -0.280600
      4 C4          33.4540    -4.5940    36.7790 ca         1 N75       0.017000
      5 C5          33.6720    -5.9430    36.4680 ca         1 N75      -0.188800
      6 C6          32.7490    -6.6670    35.7630 ca         1 N75       0.117100
      7 C7          34.7930    -6.8160    36.7720 cc         1 N75       0.032100
      8 C8          34.4330    -8.0430    36.2010 cd         1 N75       0.075900
      9 O1          33.2010    -7.9350    35.5980 os         1 N75      -0.187200
     10 C9          35.1010    -9.3720    36.1270 ca         1 N75      -0.040800
     11 C10         36.3700    -9.6180    36.7000 ca         1 N75      -0.056500
     12 C11         36.9690   -10.8860    36.6100 ca         1 N75      -0.169500
     13 C12         36.3210   -11.9400    35.9530 ca         1 N75       0.131100
     14 C13         35.0570   -11.7110    35.3720 ca         1 N75      -0.169500
     15 C14         34.4580   -10.4420    35.4610 ca         1 N75      -0.056500
     16 O2          36.9660   -13.1600    35.8950 os         1 N75      -0.317100
     17 C15         36.3540   -14.3490    35.3370 c3         1 N75       0.081600
     18 C16         35.2080   -14.9190    36.2120 c          1 N75       0.567100
     19 N1          34.5000   -15.9520    35.6280 ns         1 N75      -0.494900
     20 O3          34.9300   -14.5020    37.3300 o          1 N75      -0.558100
     21 C17         33.3940   -16.6300    36.2490 cx         1 N75       0.054700
     22 C18         32.9240   -17.9190    35.6230 cx         1 N75      -0.137900
     23 C19         33.6750   -17.9450    36.9320 cx         1 N75      -0.137900
     24 C20         35.9670    -6.4590    37.4910 cg         1 N75      -0.049300
     25 C21         36.9480    -6.0890    38.1150 ch         1 N75      -0.170000
     26 C22         38.1010    -5.6750    38.8410 ca         1 N75       0.070000
     27 C23         39.1190    -6.6020    39.1380 ca         1 N75      -0.103000
     28 C24         40.2590    -6.1950    39.8550 ca         1 N75      -0.109000
     29 C25         40.3820    -4.8600    40.2770 ca         1 N75      -0.115000
     30 C26         39.3660    -3.9350    39.9810 ca         1 N75       0.119000
     31 Cl          39.5220    -2.2640    40.5090 cl         1 N75      -0.210000
     32 C27         38.2280    -4.3400    39.2650 ca         1 N75      -0.083000
     33 C28         31.9850    -2.5340    36.6670 c          1 N75       0.725600
     34 O4          32.8280    -1.9150    37.2960 o          1 N75      -0.685500
     35 O5          30.9340    -2.0400    36.2790 o          1 N75      -0.685500
     36 O6          30.1410    -4.2150    35.1870 oh         1 N75      -0.628100
     37 H1          30.8320    -6.7130    34.7600 ha         1 N75       0.124000
     38 H2          34.2030    -4.0370    37.3400 ha         1 N75       0.135000
     39 H3          36.9150    -8.8400    37.2210 ha         1 N75       0.128000
     40 H4          37.9460   -11.0530    37.0570 ha         1 N75       0.114000
     41 H5          34.5250   -12.4980    34.8470 ha         1 N75       0.114000
     42 H6          33.4820   -10.3010    35.0030 ha         1 N75       0.128000
     43 H7          35.9680   -14.1580    34.3290 h1         1 N75       0.063200
     44 H8          37.1040   -15.1450    35.2470 h1         1 N75       0.063200
     45 H9          34.7910   -16.2340    34.6980 hn         1 N75       0.315500
     46 H10         32.6450   -15.9680    36.6890 h1         1 N75       0.093700
     47 H11         31.8580   -18.1300    35.6460 hc         1 N75       0.076200
     48 H12         33.4400   -18.2790    34.7360 hc         1 N75       0.076200
     49 H13         33.1150   -18.1720    37.8350 hc         1 N75       0.076200
     50 H14         34.6970   -18.3160    36.9250 hc         1 N75       0.076200
     51 H15         39.0280    -7.6360    38.8140 ha         1 N75       0.119000
     52 H16         41.0440    -6.9130    40.0830 ha         1 N75       0.110000
     53 H17         41.2610    -4.5420    40.8320 ha         1 N75       0.120000
     54 H18         37.4470    -3.6170    39.0410 ha         1 N75       0.149000
     55 H20         30.1910    -3.2690    35.5100 ho         1 N75       0.555000
@<TRIPOS>BOND
     1     1     2 ar  
     2     1     6 ar  
     3     1    37 1   
     4     2     3 ar  
     5     2    36 1   
     6     3     4 ar  
     7     3    33 1   
     8     4     5 ar  
     9     4    38 1   
    10     5     6 ar  
    11     5     7 1   
    12     6     9 1   
    13     7     8 2   
    14     7    24 1   
    15     8     9 1   
    16     8    10 1   
    17    10    11 ar  
    18    10    15 ar  
    19    11    12 ar  
    20    11    39 1   
    21    12    13 ar  
    22    12    40 1   
    23    13    14 ar  
    24    13    16 1   
    25    14    15 ar  
    26    14    41 1   
    27    15    42 1   
    28    16    17 1   
    29    17    18 1   
    30    17    43 1   
    31    17    44 1   
    32    18    19 1   
    33    18    20 2   
    34    19    21 1   
    35    19    45 1   
    36    21    22 1   
    37    21    23 1   
    38    21    46 1   
    39    22    23 1   
    40    22    47 1   
    41    22    48 1   
    42    23    49 1   
    43    23    50 1   
    44    24    25 3   
    45    25    26 1   
    46    26    27 ar  
    47    26    32 ar  
    48    27    28 ar  
    49    27    51 1   
    50    28    29 ar  
    51    28    52 1   
    52    29    30 ar  
    53    29    53 1   
    54    30    31 1   
    55    30    32 ar  
    56    32    54 1   
    57    33    34 1   
    58    33    35 1   
    59    36    55 1   
@<TRIPOS>SUBSTRUCTURE
     1 N75         1 TEMP              0 ****  ****    0 ROOT
