@<TRIPOS>MOLECULE
N76
   50    53     1     0     0
SMALL
No Charge or Current Charge


@<TRIPOS>ATOM
      1 C2           2.0510    -0.0980    -0.4130 ca         1 N76       0.443900
      2 C8           3.2780     0.3420    -4.6470 cc         1 N76       0.391700
      3 C10         -1.7540    -0.2990    -2.0760 c3         1 N76       0.170600
      4 C11         -2.9900    -0.3240    -3.0210 c6         1 N76      -0.067700
      5 C12         -3.1610     1.0110    -3.8030 c6         1 N76      -0.071400
      6 C13         -4.4010     0.9730    -4.7300 c6         1 N76      -0.072900
      7 C14         -5.6860     0.6350    -3.9350 c6         1 N76      -0.076400
      8 C15         -5.5270    -0.6950    -3.1580 c6         1 N76      -0.072900
      9 C16         -4.2870    -0.6560    -2.2300 c6         1 N76      -0.071400
     10 C19         -0.3260    -0.9630     4.2610 ca         1 N76      -0.054000
     11 C20          0.8200    -0.1550     4.4170 ca         1 N76      -0.232500
     12 N2           2.2070    -0.1750     0.9600 nu         1 N76      -0.930900
     13 C21          1.6520     0.0940     3.3010 ca         1 N76      -0.072000
     14 C22          1.3450    -0.4420     2.0350 ca         1 N76       0.311000
     15 N26          2.2310    -0.5820     6.6490 n8         1 N76      -1.004100
     16 N1           0.8040    -0.1650    -0.9150 nb         1 N76      -0.352000
     17 C6           0.6820    -0.0730    -2.2580 ca         1 N76       0.463300
     18 O6          -0.5580    -0.1360    -2.8610 os         1 N76      -0.428300
     19 C5           1.8370     0.0910    -3.0580 ca         1 N76      -0.093600
     20 N7           1.9540     0.2090    -4.4500 nd         1 N76      -0.510100
     21 N9           3.9610     0.3100    -3.4340 na         1 N76      -0.417300
     22 C4           3.0550     0.1510    -2.4340 ca         1 N76       0.155500
     23 N3           3.1950     0.0620    -1.1030 nb         1 N76      -0.274000
     24 C17          0.2040    -1.2600     1.9010 ca         1 N76      -0.089000
     25 C18         -0.6280    -1.5150     3.0060 ca         1 N76      -0.104000
     26 O24          2.0570     1.7460     5.8640 o          1 N76      -0.543500
     27 O25          0.0620     0.5040     6.9030 o          1 N76      -0.543500
     28 H8           3.7810     0.4610    -5.6000 h5         1 N76       0.068800
     29 H101        -1.7170    -1.2420    -1.5140 h1         1 N76       0.050700
     30 H102        -1.8670     0.5250    -1.3590 h1         1 N76       0.050700
     31 H11         -2.8090    -1.1350    -3.7410 hc         1 N76       0.064700
     32 H121        -3.2550     1.8480    -3.0970 hc         1 N76       0.043700
     33 H122        -2.2660     1.2150    -4.4070 hc         1 N76       0.043700
     34 H131        -4.2490     0.2260    -5.5210 hc         1 N76       0.040700
     35 H132        -4.5200     1.9410    -5.2340 hc         1 N76       0.040700
     36 H141        -6.5420     0.5660    -4.6200 hc         1 N76       0.039200
     37 H142        -5.9120     1.4490    -3.2330 hc         1 N76       0.039200
     38 H151        -5.4320    -1.5290    -3.8670 hc         1 N76       0.040700
     39 H152        -6.4300    -0.8900    -2.5650 hc         1 N76       0.040700
     40 H161        -4.1810    -1.6250    -1.7230 hc         1 N76       0.043700
     41 H162        -4.4440     0.0920    -1.4400 hc         1 N76       0.043700
     42 H19         -0.9810    -1.1690     5.1070 ha         1 N76       0.139000
     43 HN21         3.1460     0.1030     1.2450 hn         1 N76       0.515000
     44 H21          2.5370     0.7150     3.4140 ha         1 N76       0.134000
     45 H261         1.8180    -0.7190     7.5680 hn         1 N76       0.473500
     46 H262         1.9650    -1.4190     6.1360 hn         1 N76       0.473500
     47 HN9          4.9620     0.3920    -3.3230 hn         1 N76       0.370000
     48 H17         -0.0350    -1.7180     0.9470 ha         1 N76       0.148000
     49 H18         -1.5050    -2.1470     2.8890 ha         1 N76       0.117000
     50 S23          1.2280     0.5500     6.0230 sy         1 N76       1.122600
@<TRIPOS>BOND
     1     1    12 1   
     2     1    16 ar  
     3     1    23 ar  
     4     2    20 2   
     5     2    21 1   
     6     2    28 1   
     7     3     4 1   
     8     3    18 1   
     9     3    29 1   
    10     3    30 1   
    11     4     5 1   
    12     4     9 1   
    13     4    31 1   
    14     5     6 1   
    15     5    32 1   
    16     5    33 1   
    17     6     7 1   
    18     6    34 1   
    19     6    35 1   
    20     7     8 1   
    21     7    36 1   
    22     7    37 1   
    23     8     9 1   
    24     8    38 1   
    25     8    39 1   
    26     9    40 1   
    27     9    41 1   
    28    10    11 ar  
    29    10    25 ar  
    30    10    42 1   
    31    11    13 ar  
    32    11    50 1   
    33    12    14 1   
    34    12    43 1   
    35    13    14 ar  
    36    13    44 1   
    37    14    24 ar  
    38    15    45 1   
    39    15    46 1   
    40    15    50 1   
    41    16    17 ar  
    42    17    18 1   
    43    17    19 ar  
    44    19    20 1   
    45    19    22 ar  
    46    21    22 1   
    47    21    47 1   
    48    22    23 ar  
    49    24    25 ar  
    50    24    48 1   
    51    25    49 1   
    52    26    50 2   
    53    27    50 2   
@<TRIPOS>SUBSTRUCTURE
     1 N76         1 TEMP              0 ****  ****    0 ROOT
