@<TRIPOS>MOLECULE
N76
   50    53     1     0     0
SMALL
abcg2


@<TRIPOS>ATOM
      1 C2           1.9890     0.0300    -0.4300 ca         1 N76       0.443900
      2 C8           3.3240     0.3850    -4.5380 cc         1 N76       0.391700
      3 C10         -1.6590    -0.4150    -2.0740 c3         1 N76       0.170600
      4 C11         -2.8740    -0.4560    -2.9790 c6         1 N76      -0.067700
      5 C12         -3.0730     0.8500    -3.7490 c6         1 N76      -0.071400
      6 C13         -4.3370     0.8090    -4.6030 c6         1 N76      -0.072900
      7 C14         -5.5670     0.4960    -3.7580 c6         1 N76      -0.076400
      8 C15         -5.3790    -0.8040    -2.9840 c6         1 N76      -0.072900
      9 C16         -4.1120    -0.7670    -2.1340 c6         1 N76      -0.071400
     10 C19         -0.6360    -0.4790     4.0960 ca         1 N76      -0.054000
     11 C20          0.6900    -0.1300     4.2920 ca         1 N76      -0.232500
     12 N2           2.0890     0.0000     0.9340 nu         1 N76      -0.930900
     13 C21          1.5730     0.0320     3.2400 ca         1 N76      -0.072000
     14 C22          1.1380    -0.1660     1.9260 ca         1 N76       0.311000
     15 N26          2.1150    -1.2700     6.2060 n8         1 N76      -1.004100
     16 N1           0.7860    -0.1210    -0.9920 nb         1 N76      -0.352000
     17 C6           0.6760    -0.0820    -2.3040 ca         1 N76       0.463300
     18 O6          -0.4940    -0.2260    -2.8860 os         1 N76      -0.428300
     19 C5           1.8140     0.1130    -3.0920 ca         1 N76      -0.093600
     20 N7           2.0410     0.2010    -4.4430 nd         1 N76      -0.510100
     21 N9           3.9560     0.4250    -3.3280 na         1 N76      -0.417300
     22 C4           3.0030     0.2510    -2.3770 ca         1 N76       0.155500
     23 N3           3.1430     0.2170    -1.0600 nb         1 N76      -0.274000
     24 C17         -0.1980    -0.5270     1.7150 ca         1 N76      -0.089000
     25 C18         -1.0590    -0.6760     2.7900 ca         1 N76      -0.104000
     26 O24          2.2970     1.1880     5.9310 o          1 N76      -0.543500
     27 O25          0.1350     0.2930     6.8110 o          1 N76      -0.543500
     28 H8           3.8730     0.5000    -5.4590 h5         1 N76       0.068800
     29 H101        -1.5630    -1.3490    -1.5110 h1         1 N76       0.050700
     30 H102        -1.7470     0.4040    -1.3550 h1         1 N76       0.050700
     31 H11         -2.7430    -1.2740    -3.7000 hc         1 N76       0.064700
     32 H121        -3.1490     1.6750    -3.0300 hc         1 N76       0.043700
     33 H122        -2.2050     1.0600    -4.3790 hc         1 N76       0.043700
     34 H131        -4.2240     0.0430    -5.3780 hc         1 N76       0.040700
     35 H132        -4.4630     1.7610    -5.1240 hc         1 N76       0.040700
     36 H141        -6.4580     0.4380    -4.3880 hc         1 N76       0.039200
     37 H142        -5.7360     1.3160    -3.0510 hc         1 N76       0.039200
     38 H151        -5.3160    -1.6400    -3.6880 hc         1 N76       0.040700
     39 H152        -6.2470    -0.9960    -2.3480 hc         1 N76       0.040700
     40 H161        -3.9830    -1.7200    -1.6130 hc         1 N76       0.043700
     41 H162        -4.2200     0.0020    -1.3590 hc         1 N76       0.043700
     42 H19         -1.3220    -0.5940     4.9220 ha         1 N76       0.139000
     43 HN21         3.0280     0.1710     1.2610 hn         1 N76       0.515000
     44 H21          2.6040     0.3100     3.4250 ha         1 N76       0.134000
     45 H261         2.7720    -1.1750     6.9740 hn         1 N76       0.473500
     46 H262         1.5020    -2.0640     6.3630 hn         1 N76       0.473500
     47 HN9          4.9450     0.5510    -3.1760 hn         1 N76       0.370000
     48 H17         -0.5620    -0.6900     0.7150 ha         1 N76       0.148000
     49 H18         -2.0870    -0.9540     2.5990 ha         1 N76       0.117000
     50 S23          1.2900     0.1350     5.9390 sy         1 N76       1.122600
@<TRIPOS>BOND
     1     1    12 1   
     2     1    16 ar  
     3     1    23 ar  
     4     2    20 2   
     5     2    21 1   
     6     2    28 1   
     7     3     4 1   
     8     3    18 1   
     9     3    29 1   
    10     3    30 1   
    11     4     5 1   
    12     4     9 1   
    13     4    31 1   
    14     5     6 1   
    15     5    32 1   
    16     5    33 1   
    17     6     7 1   
    18     6    34 1   
    19     6    35 1   
    20     7     8 1   
    21     7    36 1   
    22     7    37 1   
    23     8     9 1   
    24     8    38 1   
    25     8    39 1   
    26     9    40 1   
    27     9    41 1   
    28    10    11 ar  
    29    10    25 ar  
    30    10    42 1   
    31    11    13 ar  
    32    11    50 1   
    33    12    14 1   
    34    12    43 1   
    35    13    14 ar  
    36    13    44 1   
    37    14    24 ar  
    38    15    45 1   
    39    15    46 1   
    40    15    50 1   
    41    16    17 ar  
    42    17    18 1   
    43    17    19 ar  
    44    19    20 1   
    45    19    22 ar  
    46    21    22 1   
    47    21    47 1   
    48    22    23 ar  
    49    24    25 ar  
    50    24    48 1   
    51    25    49 1   
    52    26    50 2   
    53    27    50 2   
@<TRIPOS>SUBSTRUCTURE
     1 N76         1 TEMP              0 ****  ****    0 ROOT
