@<TRIPOS>MOLECULE
N77
   37    39     1     0     0
SMALL
No Charge or Current Charge


@<TRIPOS>ATOM
      1 N3          -1.6110     2.9210     0.1020 nu         1 N77      -0.679700
      2 O4          -2.4370     3.9530    -0.5240 oh         1 N77      -0.435300
      3 C16         -2.0940     1.5990     0.0500 ca         1 N77       0.273000
      4 C1          -3.4770     1.3170     0.0570 ca         1 N77      -0.069000
      5 C2          -3.9550    -0.0180     0.0100 ca         1 N77      -0.178300
      6 C3          -5.4590    -0.3080     0.0260 c3         1 N77       0.360300
      7 F1          -5.7710    -1.4410    -0.6440 f          1 N77      -0.107667
      8 F2          -5.9150    -0.4570     1.2900 f          1 N77      -0.107667
      9 F3          -6.1820     0.6860    -0.5400 f          1 N77      -0.107667
     10 C4          -3.0230    -1.0800    -0.0250 ca         1 N77      -0.001000
     11 C5          -1.6420    -0.7950    -0.0240 ca         1 N77      -0.121200
     12 N20         -0.6230    -1.7420    -0.0520 na         1 N77       0.409500
     13 O58         -0.9460    -2.9370    -0.0870 o          1 N77      -0.434000
     14 C6           0.6360    -1.1420    -0.0360 cc         1 N77      -0.102800
     15 S1           0.5700     0.6360     0.0180 ss         1 N77       0.163800
     16 C15         -1.1970     0.5160     0.0130 ca         1 N77      -0.183000
     17 C7           1.9270    -1.8540    -0.0600 c          1 N77       0.565800
     18 O1           2.0430    -3.0710    -0.0990 o          1 N77      -0.537100
     19 N1           3.0360    -1.0340    -0.0370 ns         1 N77      -0.508900
     20 C8           4.4140    -1.5180    -0.0600 c3         1 N77       0.152300
     21 C40          5.3950    -0.3600    -0.0350 ca         1 N77      -0.167300
     22 C41          5.5790     0.4500    -1.1700 ca         1 N77      -0.057000
     23 C42          6.5010     1.5060    -1.0890 ca         1 N77      -0.167000
     24 C43          7.2020     1.7150     0.1110 ca         1 N77       0.342900
     25 C45          6.1410    -0.0780     1.1260 ca         1 N77       0.347900
     26 N44          7.0310     0.9400     1.2060 nb         1 N77      -0.663000
     27 H1          -0.6220     3.0340    -0.1600 hn         1 N77       0.469000
     28 H2          -2.3920     4.7580     0.0540 ho         1 N77       0.469000
     29 H3          -4.1830     2.1410     0.1060 ha         1 N77       0.153000
     30 H5          -3.3680    -2.1140    -0.0460 ha         1 N77       0.173000
     31 H8           2.8820    -0.0350    -0.0050 hn         1 N77       0.320500
     32 H9           4.5790    -2.1730     0.8070 h1         1 N77       0.067200
     33 H10          4.5700    -2.1140    -0.9690 h1         1 N77       0.067200
     34 H11          5.0240     0.2670    -2.0890 ha         1 N77       0.124000
     35 H12          6.6750     2.1580    -1.9410 ha         1 N77       0.126000
     36 H13          7.9220     2.5280     0.1980 h4         1 N77       0.022100
     37 H14          6.0240    -0.6850     2.0230 h4         1 N77       0.021100
@<TRIPOS>BOND
     1     1     2 1   
     2     1     3 1   
     3     1    27 1   
     4     2    28 1   
     5     3     4 ar  
     6     3    16 ar  
     7     4     5 ar  
     8     4    29 1   
     9     5     6 1   
    10     5    10 ar  
    11     6     7 1   
    12     6     8 1   
    13     6     9 1   
    14    10    11 ar  
    15    10    30 1   
    16    11    12 1   
    17    11    16 ar  
    18    12    13 1   
    19    12    14 2   
    20    14    15 1   
    21    14    17 1   
    22    15    16 1   
    23    17    18 2   
    24    17    19 1   
    25    19    20 1   
    26    19    31 1   
    27    20    21 1   
    28    20    32 1   
    29    20    33 1   
    30    21    22 ar  
    31    21    25 ar  
    32    22    23 ar  
    33    22    34 1   
    34    23    24 ar  
    35    23    35 1   
    36    24    26 ar  
    37    24    36 1   
    38    25    26 ar  
    39    25    37 1   
@<TRIPOS>SUBSTRUCTURE
     1 N77         1 TEMP              0 ****  ****    0 ROOT
