@<TRIPOS>MOLECULE
N77
   37    39     1     0     0
SMALL
abcg2


@<TRIPOS>ATOM
      1 N3          -1.6180     2.9880    -0.4070 nu         1 N77      -0.679700
      2 O4          -2.5980     3.9130    -0.7030 oh         1 N77      -0.435300
      3 C16         -2.0760     1.6930    -0.2770 ca         1 N77       0.273000
      4 C1          -3.4140     1.3570    -0.1110 ca         1 N77      -0.069000
      5 C2          -3.8050     0.0280     0.0740 ca         1 N77      -0.178300
      6 C3          -5.2550    -0.3110     0.2590 c3         1 N77       0.360300
      7 F1          -5.6810    -1.1670    -0.6790 f          1 N77      -0.107667
      8 F2          -5.4700    -0.9040     1.4410 f          1 N77      -0.107667
      9 F3          -6.0510     0.7590     0.2060 f          1 N77      -0.107667
     10 C4          -2.8990    -1.0140     0.0900 ca         1 N77      -0.001000
     11 C5          -1.5690    -0.6660    -0.0760 ca         1 N77      -0.121200
     12 N20         -0.5010    -1.5790    -0.0850 na         1 N77       0.409500
     13 O58         -0.7010    -2.8120     0.0560 o          1 N77      -0.434000
     14 C6           0.6690    -0.9810    -0.2310 cc         1 N77      -0.102800
     15 S1           0.5700     0.7360    -0.3800 ss         1 N77       0.163800
     16 C15         -1.1490     0.6430    -0.2420 ca         1 N77      -0.183000
     17 C7           1.9540    -1.7190    -0.3410 c          1 N77       0.565800
     18 O1           2.0340    -2.7690    -0.9470 o          1 N77      -0.537100
     19 N1           2.9880    -1.0760     0.2270 ns         1 N77      -0.508900
     20 C8           4.3480    -1.5730     0.1680 c3         1 N77       0.152300
     21 C40          5.3230    -0.4320     0.1110 ca         1 N77      -0.167300
     22 C41          5.3260     0.4700    -0.9480 ca         1 N77      -0.057000
     23 C42          6.2500     1.5000    -0.9520 ca         1 N77      -0.167000
     24 C43          7.1410     1.5940     0.1090 ca         1 N77       0.342900
     25 C45          6.2570    -0.2400     1.1210 ca         1 N77       0.347900
     26 N44          7.1490     0.7440     1.1270 nb         1 N77      -0.663000
     27 H1          -0.8540     3.1040    -1.0640 hn         1 N77       0.469000
     28 H2          -2.6400     4.4860     0.0720 ho         1 N77       0.469000
     29 H3          -4.1520     2.1440    -0.1270 ha         1 N77       0.153000
     30 H5          -3.1850    -2.0480     0.2290 ha         1 N77       0.173000
     31 H8           2.8030    -0.3420     0.8950 hn         1 N77       0.320500
     32 H9           4.5590    -2.2110     1.0300 h1         1 N77       0.067200
     33 H10          4.4440    -2.1960    -0.7200 h1         1 N77       0.067200
     34 H11          4.6160     0.3650    -1.7600 ha         1 N77       0.124000
     35 H12          6.2850     2.2180    -1.7590 ha         1 N77       0.126000
     36 H13          7.8760     2.3900     0.1340 h4         1 N77       0.022100
     37 H14          6.2820    -0.9200     1.9670 h4         1 N77       0.021100
@<TRIPOS>BOND
     1     1     2 1   
     2     1     3 1   
     3     1    27 1   
     4     2    28 1   
     5     3     4 ar  
     6     3    16 ar  
     7     4     5 ar  
     8     4    29 1   
     9     5     6 1   
    10     5    10 ar  
    11     6     7 1   
    12     6     8 1   
    13     6     9 1   
    14    10    11 ar  
    15    10    30 1   
    16    11    12 1   
    17    11    16 ar  
    18    12    13 1   
    19    12    14 2   
    20    14    15 1   
    21    14    17 1   
    22    15    16 1   
    23    17    18 2   
    24    17    19 1   
    25    19    20 1   
    26    19    31 1   
    27    20    21 1   
    28    20    32 1   
    29    20    33 1   
    30    21    22 ar  
    31    21    25 ar  
    32    22    23 ar  
    33    22    34 1   
    34    23    24 ar  
    35    23    35 1   
    36    24    26 ar  
    37    24    36 1   
    38    25    26 ar  
    39    25    37 1   
@<TRIPOS>SUBSTRUCTURE
     1 N77         1 TEMP              0 ****  ****    0 ROOT
