@<TRIPOS>MOLECULE
N78
   71    76     1     0     0
SMALL
No Charge or Current Charge


@<TRIPOS>ATOM
      1 C4         -42.1330    12.3800    -0.4260 ca         1 N78       0.144500
      2 C5         -43.2800    11.6180    -0.4180 ca         1 N78      -0.242800
      3 C6         -43.1650    10.2150    -0.3590 ca         1 N78       0.436900
      4 N1         -41.9490     9.6460    -0.2460 nb         1 N78      -0.283000
      5 N3         -40.9130    11.8280    -0.3050 nb         1 N78      -0.223000
      6 C2         -40.8860    10.4810    -0.2000 ca         1 N78       0.178900
      7 CAK        -43.8890    13.8250    -0.8010 cc         1 N78      -0.164100
      8 CAL        -44.3920    12.5520    -0.5810 cd         1 N78      -0.048400
      9 CAM        -45.8300    12.2180    -0.6440 ca         1 N78      -0.062800
     10 CAN        -44.5040     8.0160    -0.4430 ca         1 N78       0.319000
     11 CAO        -45.6140     7.4790    -1.1150 ca         1 N78      -0.157500
     12 CAP        -45.9270     6.1130    -1.0070 ca         1 N78      -0.061500
     13 CAQ        -45.1330     5.2680    -0.2100 ca         1 N78      -0.152300
     14 CAR        -44.0290     5.8040     0.4780 ca         1 N78      -0.061500
     15 CAS        -43.7210     7.1710     0.3650 ca         1 N78      -0.157500
     16 CAT        -46.6810    12.9410    -1.5030 ca         1 N78      -0.067000
     17 CAU        -48.0540    12.6450    -1.5860 ca         1 N78      -0.078000
     18 CAV        -48.6120    11.6520    -0.7480 ca         1 N78       0.159100
     19 CAW        -47.7710    10.9570     0.1490 ca         1 N78      -0.202000
     20 CAX        -46.3970    11.2450     0.2020 ca         1 N78      -0.076000
     21 CAY        -45.4630     3.7860    -0.0960 c3         1 N78       0.166300
     22 CAZ        -43.5200     2.4220    -0.9400 c          1 N78       0.589100
     23 CBA        -43.2250     1.7200    -2.2230 ca         1 N78      -0.145100
     24 CBB        -44.3060     1.8970    -3.0780 ca         1 N78      -0.145100
     25 CBC        -45.3320     2.7200    -2.3750 c          1 N78       0.589100
     26 CBD        -42.0970     0.9830    -2.6100 ca         1 N78      -0.046000
     27 CBE        -42.0890     0.4210    -3.9050 ca         1 N78      -0.100000
     28 CBF        -43.1910     0.6020    -4.7770 ca         1 N78      -0.100000
     29 CBG        -44.3180     1.3470    -4.3680 ca         1 N78      -0.046000
     30 CBH        -50.6320    10.4960     0.0990 c3         1 N78       0.161600
     31 CBI        -52.1600    10.5440    -0.1550 c3         1 N78       0.162600
     32 CBJ        -49.7420    12.9530    -3.4610 c          1 N78       0.610100
     33 CBK        -50.5280    14.0720    -4.1590 c3         1 N78      -0.155400
     34 CBL        -50.0280    14.3130    -5.6000 c3         1 N78      -0.079100
     35 NAC        -42.4950    13.6960    -0.6420 na         1 N78      -0.310400
     36 NAD        -44.2530     9.3830    -0.5740 nu         1 N78      -0.929900
     37 NAE        -48.8470    13.3920    -2.4960 ns         1 N78      -0.171000
     38 NAF        -44.7840     2.9810    -1.1210 n          1 N78      -0.391400
     39 OBM        -49.9790    11.4380    -0.7760 os         1 N78      -0.322100
     40 OBO        -46.4190     3.0850    -2.7990 o          1 N78      -0.489500
     41 OBP        -52.4990    10.0020    -1.4440 oh         1 N78      -0.639000
     42 OBQ        -49.9010    11.7720    -3.7490 o          1 N78      -0.573100
     43 H1         -39.9060    10.0180    -0.1010 h5         1 N78       0.047100
     44 H2         -44.3870    14.7700    -0.9990 h4         1 N78       0.219000
     45 H3         -46.2360     8.1200    -1.7330 ha         1 N78       0.135500
     46 H4         -46.7850     5.7130    -1.5440 ha         1 N78       0.123000
     47 H5         -43.4100     5.1640     1.1040 ha         1 N78       0.123000
     48 H6         -42.8800     7.5650     0.9250 ha         1 N78       0.135500
     49 H7         -46.2660    13.7130    -2.1480 ha         1 N78       0.124000
     50 H8         -48.1660    10.2100     0.8300 ha         1 N78       0.122000
     51 H9         -45.7850    10.7450     0.9490 ha         1 N78       0.123000
     52 H10        -46.5480     3.6440    -0.1860 h1         1 N78       0.068200
     53 H11        -45.1750     3.4220     0.8990 h1         1 N78       0.068200
     54 H12        -41.2540     0.8490    -1.9340 ha         1 N78       0.138000
     55 H13        -41.2290    -0.1560    -4.2360 ha         1 N78       0.121000
     56 H14        -43.1690     0.1620    -5.7720 ha         1 N78       0.121000
     57 H15        -45.1680     1.4910    -5.0330 ha         1 N78       0.138000
     58 H16        -50.4450    10.7590     1.1490 h1         1 N78       0.045200
     59 H17        -50.2630     9.4770    -0.0730 h1         1 N78       0.045200
     60 H18        -52.5040    11.5840    -0.0720 h1         1 N78       0.027200
     61 H19        -52.6610     9.9680     0.6340 h1         1 N78       0.027200
     62 H20        -50.4280    15.0100    -3.5990 hc         1 N78       0.053200
     63 H21        -51.5850    13.7830    -4.2070 hc         1 N78       0.053200
     64 H22        -50.6040    15.1140    -6.0780 hc         1 N78       0.042367
     65 H23        -48.9700    14.6040    -5.6010 hc         1 N78       0.042367
     66 H24        -50.1360    13.4050    -6.2070 hc         1 N78       0.042367
     67 H25        -41.8280    14.4590    -0.7050 hn         1 N78       0.365000
     68 H26        -45.0500     9.9100    -0.9220 hn         1 N78       0.510000
     69 H27        -48.7640    14.3970    -2.4110 hn         1 N78       0.152000
     70 H28        -53.4700    10.1020    -1.5510 ho         1 N78       0.443000
     71 OBN        -42.8140     2.4940     0.0550 o          1 N78      -0.489500
@<TRIPOS>BOND
     1     1     2 ar  
     2     1     5 ar  
     3     1    35 1   
     4     2     3 ar  
     5     2     8 1   
     6     3     4 ar  
     7     3    36 1   
     8     4     6 ar  
     9     5     6 ar  
    10     6    43 1   
    11     7     8 2   
    12     7    35 1   
    13     7    44 1   
    14     8     9 1   
    15     9    16 ar  
    16     9    20 ar  
    17    10    11 ar  
    18    10    15 ar  
    19    10    36 1   
    20    11    12 ar  
    21    11    45 1   
    22    12    13 ar  
    23    12    46 1   
    24    13    14 ar  
    25    13    21 1   
    26    14    15 ar  
    27    14    47 1   
    28    15    48 1   
    29    16    17 ar  
    30    16    49 1   
    31    17    18 ar  
    32    17    37 1   
    33    18    19 ar  
    34    18    39 1   
    35    19    20 ar  
    36    19    50 1   
    37    20    51 1   
    38    21    38 1   
    39    21    52 1   
    40    21    53 1   
    41    22    23 1   
    42    22    38 1   
    43    22    71 2   
    44    23    24 ar  
    45    23    26 ar  
    46    24    25 1   
    47    24    29 ar  
    48    25    38 1   
    49    25    40 2   
    50    26    27 ar  
    51    26    54 1   
    52    27    28 ar  
    53    27    55 1   
    54    28    29 ar  
    55    28    56 1   
    56    29    57 1   
    57    30    31 1   
    58    30    39 1   
    59    30    58 1   
    60    30    59 1   
    61    31    41 1   
    62    31    60 1   
    63    31    61 1   
    64    32    33 1   
    65    32    37 1   
    66    32    42 2   
    67    33    34 1   
    68    33    62 1   
    69    33    63 1   
    70    34    64 1   
    71    34    65 1   
    72    34    66 1   
    73    35    67 1   
    74    36    68 1   
    75    37    69 1   
    76    41    70 1   
@<TRIPOS>SUBSTRUCTURE
     1 N78         1 TEMP              0 ****  ****    0 ROOT
