@<TRIPOS>MOLECULE
N78
   71    76     1     0     0
SMALL
bcc


@<TRIPOS>ATOM
      1 C4         -42.2350    12.5750     0.2160 ca         1 N78       0.472800
      2 C5         -43.3650    11.7640     0.0430 ca         1 N78      -0.373400
      3 C6         -43.1120    10.3770     0.1070 ca         1 N78       0.765200
      4 N1         -41.8910     9.9470     0.4010 nb         1 N78      -0.809000
      5 N3         -41.0000    12.1510     0.4910 nb         1 N78      -0.749000
      6 C2         -40.9190    10.8420     0.5830 ca         1 N78       0.704900
      7 CAK        -43.9620    13.9020    -0.2010 cc         1 N78      -0.114100
      8 CAL        -44.4780    12.6340    -0.2140 cd         1 N78      -0.048400
      9 CAM        -45.8910    12.2920    -0.4130 ca         1 N78      -0.062800
     10 CAN        -44.1730     8.1080    -0.0400 ca         1 N78       0.180600
     11 CAO        -45.3990     7.5180    -0.3710 ca         1 N78      -0.175500
     12 CAP        -45.5790     6.1520    -0.2740 ca         1 N78      -0.079500
     13 CAQ        -44.5460     5.3220     0.1560 ca         1 N78      -0.152300
     14 CAR        -43.3330     5.9130     0.4820 ca         1 N78      -0.079500
     15 CAS        -43.1330     7.2840     0.3920 ca         1 N78      -0.175500
     16 CAT        -46.6130    12.8190    -1.4860 ca         1 N78      -0.085000
     17 CAU        -47.9520    12.5280    -1.6690 ca         1 N78       0.014600
     18 CAV        -48.6160    11.6710    -0.7770 ca         1 N78       0.159100
     19 CAW        -47.9040    11.1290     0.2890 ca         1 N78      -0.220000
     20 CAX        -46.5650    11.4500     0.4690 ca         1 N78      -0.094000
     21 CAY        -44.7400     3.8330     0.2490 c3         1 N78       0.166300
     22 CAZ        -43.3450     2.7990    -1.5520 c          1 N78       0.731600
     23 CBA        -43.6250     2.1970    -2.8770 ca         1 N78      -0.145100
     24 CBB        -44.9930     2.2450    -3.0870 ca         1 N78      -0.145100
     25 CBC        -45.6160     2.8810    -1.9010 c          1 N78       0.731600
     26 CBD        -42.7680     1.6580    -3.8110 ca         1 N78      -0.064000
     27 CBE        -43.3350     1.1620    -4.9840 ca         1 N78      -0.118000
     28 CBF        -44.7100     1.2110    -5.1940 ca         1 N78      -0.118000
     29 CBG        -45.5670     1.7580    -4.2410 ca         1 N78      -0.064000
     30 CBH        -50.6460    10.6160    -0.1430 c3         1 N78       0.138400
     31 CBI        -52.0780    10.5730    -0.6060 c3         1 N78       0.139400
     32 CBJ        -49.1100    12.3750    -3.7950 c          1 N78       0.677100
     33 CBK        -50.0120    13.1270    -4.7470 c3         1 N78      -0.155400
     34 CBL        -49.8500    12.6850    -6.1920 c3         1 N78      -0.079100
     35 NAC        -42.6200    13.8610     0.0560 na         1 N78      -0.260100
     36 NAD        -44.1100     9.4930    -0.1520 nu         1 N78      -0.736300
     37 NAE        -48.6650    13.1020    -2.7430 ns         1 N78      -0.497100
     38 NAF        -44.5760     3.1680    -1.0320 n          1 N78      -0.525400
     39 OBM        -49.9120    11.4530    -1.0200 os         1 N78      -0.298900
     40 OBO        -46.7810     3.1150    -1.7010 o          1 N78      -0.565000
     41 OBP        -52.1510     9.9310    -1.8550 oh         1 N78      -0.576800
     42 OBQ        -48.8120    11.2050    -3.9500 o          1 N78      -0.573100
     43 H1         -39.9450    10.4310     0.8240 h5         1 N78       0.047100
     44 H2         -44.4690    14.8450    -0.3350 h4         1 N78       0.169000
     45 H3         -46.2260     8.1380    -0.7000 ha         1 N78       0.153500
     46 H4         -46.5430     5.7320    -0.5320 ha         1 N78       0.141000
     47 H5         -42.5100     5.2950     0.8220 ha         1 N78       0.141000
     48 H6         -42.1770     7.7040     0.6570 ha         1 N78       0.153500
     49 H7         -46.1190    13.4630    -2.2030 ha         1 N78       0.142000
     50 H8         -48.3810    10.4720     1.0040 ha         1 N78       0.140000
     51 H9         -46.0490    11.0470     1.3320 ha         1 N78       0.141000
     52 H10        -45.7390     3.5950     0.6140 h1         1 N78       0.068200
     53 H11        -44.0320     3.3940     0.9500 h1         1 N78       0.068200
     54 H12        -41.6990     1.6200    -3.6480 ha         1 N78       0.156000
     55 H13        -42.6990     0.7320    -5.7450 ha         1 N78       0.139000
     56 H14        -45.1190     0.8160    -6.1150 ha         1 N78       0.139000
     57 H15        -46.6360     1.7950    -4.4060 ha         1 N78       0.156000
     58 H16        -50.6210    11.0080     0.8790 h1         1 N78       0.045200
     59 H17        -50.2190     9.6060    -0.1240 h1         1 N78       0.045200
     60 H18        -52.4740    11.5960    -0.6440 h1         1 N78       0.027200
     61 H19        -52.6470    10.0410     0.1670 h1         1 N78       0.027200
     62 H20        -49.8520    14.2040    -4.6550 hc         1 N78       0.053200
     63 H21        -51.0410    12.9480    -4.4160 hc         1 N78       0.053200
     64 H22        -50.5460    13.2240    -6.8320 hc         1 N78       0.042367
     65 H23        -48.8420    12.8800    -6.5580 hc         1 N78       0.042367
     66 H24        -50.0490    11.6210    -6.3070 hc         1 N78       0.042367
     67 H25        -42.0180    14.6640     0.1450 hn         1 N78       0.314700
     68 H26        -44.9690     9.9150    -0.4700 hn         1 N78       0.454800
     69 H27        -48.9140    14.0770    -2.6800 hn         1 N78       0.318500
     70 H28        -53.0690     9.9390    -2.1400 ho         1 N78       0.404000
     71 OBN        -42.2840     2.9490    -1.0020 o          1 N78      -0.565000
@<TRIPOS>BOND
     1     1     2 ar  
     2     1     5 ar  
     3     1    35 1   
     4     2     3 ar  
     5     2     8 1   
     6     3     4 ar  
     7     3    36 1   
     8     4     6 ar  
     9     5     6 ar  
    10     6    43 1   
    11     7     8 2   
    12     7    35 1   
    13     7    44 1   
    14     8     9 1   
    15     9    16 ar  
    16     9    20 ar  
    17    10    11 ar  
    18    10    15 ar  
    19    10    36 1   
    20    11    12 ar  
    21    11    45 1   
    22    12    13 ar  
    23    12    46 1   
    24    13    14 ar  
    25    13    21 1   
    26    14    15 ar  
    27    14    47 1   
    28    15    48 1   
    29    16    17 ar  
    30    16    49 1   
    31    17    18 ar  
    32    17    37 1   
    33    18    19 ar  
    34    18    39 1   
    35    19    20 ar  
    36    19    50 1   
    37    20    51 1   
    38    21    38 1   
    39    21    52 1   
    40    21    53 1   
    41    22    23 1   
    42    22    38 1   
    43    22    71 2   
    44    23    24 ar  
    45    23    26 ar  
    46    24    25 1   
    47    24    29 ar  
    48    25    38 1   
    49    25    40 2   
    50    26    27 ar  
    51    26    54 1   
    52    27    28 ar  
    53    27    55 1   
    54    28    29 ar  
    55    28    56 1   
    56    29    57 1   
    57    30    31 1   
    58    30    39 1   
    59    30    58 1   
    60    30    59 1   
    61    31    41 1   
    62    31    60 1   
    63    31    61 1   
    64    32    33 1   
    65    32    37 1   
    66    32    42 2   
    67    33    34 1   
    68    33    62 1   
    69    33    63 1   
    70    34    64 1   
    71    34    65 1   
    72    34    66 1   
    73    35    67 1   
    74    36    68 1   
    75    37    69 1   
    76    41    70 1   
@<TRIPOS>SUBSTRUCTURE
     1 N78         1 TEMP              0 ****  ****    0 ROOT
