@<TRIPOS>MOLECULE
N7A
   36    36     1     0     0
SMALL
No Charge or Current Charge


@<TRIPOS>ATOM
      1 CAB         -5.6980     4.1040    14.0600 ca         1 N7A      -0.187000
      2 CAA         -6.1840     3.0620    14.8680 ca         1 N7A       0.026500
      3 CAF         -5.3350     2.4530    15.8110 ca         1 N7A      -0.320500
      4 SAG         -5.9380     1.1250    16.8480 sy         1 N7A       1.134600
      5 OAH         -7.3990     1.0920    16.8200 o          1 N7A      -0.548500
      6 OAI         -5.1610     1.0420    18.0850 o          1 N7A      -0.548500
      7 NAJ         -5.5020    -0.1880    15.9790 n8         1 N7A      -1.003100
      8 CAE         -4.0040     2.8950    15.9390 ca         1 N7A       0.026500
      9 CAD         -3.5270     3.9370    15.1260 ca         1 N7A      -0.187000
     10 CAC         -4.3700     4.5520    14.1760 ca         1 N7A       0.061000
     11 NAK         -3.9580     5.6100    13.3240 ns         1 N7A      -0.166000
     12 CAL         -2.7400     6.2440    13.1500 c          1 N7A       0.666100
     13 OAQ         -1.7080     5.9680    13.7430 o          1 N7A      -0.617100
     14 NAM         -2.8050     7.2450    12.2080 ns         1 N7A      -0.523900
     15 CAN         -1.6880     8.1190    11.8260 c3         1 N7A       0.110000
     16 CAO         -1.7770     9.5130    12.4890 c3         1 N7A      -0.093400
     17 CAP         -1.6400     9.5250    14.0350 c3         1 N7A      -0.070400
     18 CAR         -0.2670     9.0650    14.5770 c3         1 N7A       0.156600
     19 OAS          0.7630     9.9720    14.1630 oh         1 N7A      -0.667000
     20 H1          -6.3650     4.5660    13.3350 ha         1 N7A       0.134000
     21 H2          -7.2180     2.7370    14.7560 ha         1 N7A       0.136500
     22 H3          -6.3930    -0.6730    15.9070 hn         1 N7A       0.471000
     23 H4          -5.3630     0.2080    15.0530 hn         1 N7A       0.471000
     24 H5          -3.3350     2.4340    16.6650 ha         1 N7A       0.136500
     25 H6          -2.4970     4.2530    15.2550 ha         1 N7A       0.134000
     26 H7          -4.7000     5.9680    12.7380 hn         1 N7A       0.146000
     27 H8          -3.7020     7.3970    11.7630 hn         1 N7A       0.307500
     28 H9          -1.7120     8.2440    10.7360 h1         1 N7A       0.062700
     29 H10         -0.7320     7.6410    12.0770 h1         1 N7A       0.062700
     30 H11         -1.0010    10.1560    12.0550 hc         1 N7A       0.051200
     31 H12         -2.7370     9.9680    12.2160 hc         1 N7A       0.051200
     32 H13         -1.8370    10.5410    14.3980 hc         1 N7A       0.044700
     33 H14         -2.4210     8.8910    14.4720 hc         1 N7A       0.044700
     34 H15         -0.3160     9.0290    15.6740 h1         1 N7A       0.027200
     35 H16         -0.0470     8.0490    14.2240 h1         1 N7A       0.027200
     36 H17          1.6060     9.6430    14.5480 ho         1 N7A       0.444000
@<TRIPOS>BOND
     1     1     2 ar  
     2     1    10 ar  
     3     1    20 1   
     4     2     3 ar  
     5     2    21 1   
     6     3     4 1   
     7     3     8 ar  
     8     4     5 2   
     9     4     6 2   
    10     4     7 1   
    11     7    22 1   
    12     7    23 1   
    13     8     9 ar  
    14     8    24 1   
    15     9    10 ar  
    16     9    25 1   
    17    10    11 1   
    18    11    12 1   
    19    11    26 1   
    20    12    13 2   
    21    12    14 1   
    22    14    15 1   
    23    14    27 1   
    24    15    16 1   
    25    15    28 1   
    26    15    29 1   
    27    16    17 1   
    28    16    30 1   
    29    16    31 1   
    30    17    18 1   
    31    17    32 1   
    32    17    33 1   
    33    18    19 1   
    34    18    34 1   
    35    18    35 1   
    36    19    36 1   
@<TRIPOS>SUBSTRUCTURE
     1 N7A         1 TEMP              0 ****  ****    0 ROOT
