@<TRIPOS>MOLECULE
N7A
   36    36     1     0     0
SMALL
bcc


@<TRIPOS>ATOM
      1 CAB         -5.6840     4.4620    14.4120 ca         1 N7A      -0.205000
      2 CAA         -6.1710     3.4220    15.1780 ca         1 N7A       0.008500
      3 CAF         -5.2870     2.4990    15.7180 ca         1 N7A      -0.320500
      4 SAG         -5.8760     1.1870    16.7300 sy         1 N7A       1.276200
      5 OAH         -7.3030     1.3950    16.9480 o          1 N7A      -0.619300
      6 OAI         -5.0200     1.0390    17.8990 o          1 N7A      -0.619300
      7 NAJ         -5.5550    -0.1290    15.7810 n8         1 N7A      -0.892700
      8 CAE         -3.9220     2.6230    15.4860 ca         1 N7A       0.008500
      9 CAD         -3.4310     3.6610    14.7190 ca         1 N7A      -0.205000
     10 CAC         -4.3110     4.6040    14.1710 ca         1 N7A       0.153600
     11 NAK         -3.9280     5.6700    13.3800 ns         1 N7A      -0.492100
     12 CAL         -2.6530     6.1500    13.1410 c          1 N7A       0.800100
     13 OAQ         -1.6550     5.6710    13.6570 o          1 N7A      -0.617100
     14 NAM         -2.6360     7.1930    12.2860 ns         1 N7A      -0.590900
     15 CAN         -1.4480     7.9500    11.9560 c3         1 N7A       0.110000
     16 CAO         -1.5850     9.4250    12.3170 c3         1 N7A      -0.093400
     17 CAP         -1.8140     9.6960    13.8010 c3         1 N7A      -0.070400
     18 CAR         -0.7110     9.2030    14.7180 c3         1 N7A       0.133400
     19 OAS          0.5060     9.8230    14.3570 oh         1 N7A      -0.604800
     20 H1          -6.3800     5.1810    13.9980 ha         1 N7A       0.152000
     21 H2          -7.2360     3.3440    15.3500 ha         1 N7A       0.154500
     22 H3          -5.5690    -0.9880    16.3210 hn         1 N7A       0.415800
     23 H4          -6.1850    -0.2030    14.9880 hn         1 N7A       0.415800
     24 H5          -3.2250     1.9040    15.8960 ha         1 N7A       0.154500
     25 H6          -2.3690     3.7290    14.5490 ha         1 N7A       0.152000
     26 H7          -4.6930     6.2080    13.0020 hn         1 N7A       0.312500
     27 H8          -3.4990     7.5070    11.8720 hn         1 N7A       0.307500
     28 H9          -1.2460     7.8570    10.8850 h1         1 N7A       0.062700
     29 H10         -0.6020     7.5010    12.4720 h1         1 N7A       0.062700
     30 H11         -0.6870     9.9400    11.9700 hc         1 N7A       0.051200
     31 H12         -2.4160     9.8540    11.7480 hc         1 N7A       0.051200
     32 H13         -1.9520    10.7720    13.9480 hc         1 N7A       0.044700
     33 H14         -2.7480     9.2290    14.1250 hc         1 N7A       0.044700
     34 H15         -0.9840     9.4360    15.7550 h1         1 N7A       0.027200
     35 H16         -0.6350     8.1110    14.6540 h1         1 N7A       0.027200
     36 H17          1.2020     9.4600    14.9110 ho         1 N7A       0.405000
@<TRIPOS>BOND
     1     1     2 ar  
     2     1    10 ar  
     3     1    20 1   
     4     2     3 ar  
     5     2    21 1   
     6     3     4 1   
     7     3     8 ar  
     8     4     5 2   
     9     4     6 2   
    10     4     7 1   
    11     7    22 1   
    12     7    23 1   
    13     8     9 ar  
    14     8    24 1   
    15     9    10 ar  
    16     9    25 1   
    17    10    11 1   
    18    11    12 1   
    19    11    26 1   
    20    12    13 2   
    21    12    14 1   
    22    14    15 1   
    23    14    27 1   
    24    15    16 1   
    25    15    28 1   
    26    15    29 1   
    27    16    17 1   
    28    16    30 1   
    29    16    31 1   
    30    17    18 1   
    31    17    32 1   
    32    17    33 1   
    33    18    19 1   
    34    18    34 1   
    35    18    35 1   
    36    19    36 1   
@<TRIPOS>SUBSTRUCTURE
     1 N7A         1 TEMP              0 ****  ****    0 ROOT
