@<TRIPOS>MOLECULE
N7B
   70    75     1     0     0
SMALL
bcc


@<TRIPOS>ATOM
      1 C4           4.6120    10.3410    -0.2600 ca         1 N7B       0.767200
      2 C5           4.9160    11.7200    -0.2540 ca         1 N7B      -0.377400
      3 C6           3.8370    12.5630    -0.5480 ca         1 N7B       0.473800
      4 N1           2.6050    12.1720    -0.8870 nb         1 N7B      -0.754000
      5 N3           3.3930     9.9430    -0.6080 nb         1 N7B      -0.817000
      6 C2           2.4750    10.8640    -0.9070 ca         1 N7B       0.705900
      7 CAA          5.5840    13.8430    -0.0660 cc         1 N7B      -0.116100
      8 CAB          6.0420    12.5580     0.0440 cd         1 N7B      -0.050400
      9 CAC          7.4180    12.1580     0.3630 ca         1 N7B      -0.059800
     10 CAD          8.0620    12.6320     1.5070 ca         1 N7B      -0.089000
     11 CAE          9.3630    12.2710     1.8070 ca         1 N7B       0.016600
     12 CAF         10.0670    11.4040     0.9550 ca         1 N7B       0.158100
     13 CAG          9.4280    10.9100    -0.1790 ca         1 N7B      -0.221000
     14 CAH          8.1260    11.2940    -0.4690 ca         1 N7B      -0.096000
     15 CAJ         10.3550    11.9930     4.0030 c          1 N7B       0.677100
     16 CAK         11.1670    12.7010     5.0650 c3         1 N7B      -0.155400
     17 CAM         11.3300    11.8930     6.3400 c3         1 N7B      -0.076100
     18 CAO         12.0920    10.2590     0.4810 c3         1 N7B       0.138400
     19 CAP         13.4650    10.1150     1.0810 c3         1 N7B       0.139400
     20 CAS          6.7510     7.4370     0.5430 ca         1 N7B      -0.139000
     21 CAT          5.7680     5.2930     0.4490 ca         1 N7B      -0.058200
     22 CAU          4.5410     5.8690     0.0920 ca         1 N7B      -0.208900
     23 CAX          3.6690     4.7550    -0.0400 cc         1 N7B       0.351800
     24 CAY          6.5260     2.9420     0.8790 c3         1 N7B       0.112600
     25 CAZ          6.9150     3.0330     2.3340 ca         1 N7B      -0.118300
     26 CBA          8.2550     3.0460     2.7020 ca         1 N7B      -0.110500
     27 CBB          8.6200     3.1120     4.0420 ca         1 N7B      -0.128500
     28 CBC          7.6440     3.1730     5.0250 ca         1 N7B      -0.118000
     29 CBD          6.3010     3.1670     4.6620 ca         1 N7B      -0.128500
     30 CBE          5.9390     3.0960     3.3250 ca         1 N7B      -0.110500
     31 CBF          5.5160     8.0430     0.1830 ca         1 N7B       0.125600
     32 CBG          6.8990     6.0820     0.6820 ca         1 N7B      -0.112000
     33 CBH          4.4020     7.2570    -0.0480 ca         1 N7B      -0.080000
     34 NAI          9.9970    12.7810     2.9580 ns         1 N7B      -0.500100
     35 NAR          5.5530     9.4370     0.1030 nu         1 N7B      -0.731300
     36 NAV          5.5690     3.9510     0.4970 na         1 N7B       0.103900
     37 NAW          4.3030     3.6360     0.2100 nd         1 N7B      -0.522100
     38 NBN          4.2630    13.8400    -0.4210 na         1 N7B      -0.261100
     39 OAL         10.0450    10.8190     4.0680 o          1 N7B      -0.569100
     40 OAN         11.3280    11.1260     1.3010 os         1 N7B      -0.298900
     41 OAQ         13.3730     9.4380     2.3100 oh         1 N7B      -0.577800
     42 H1           1.5020    10.4770    -1.1900 h5         1 N7B       0.045100
     43 H2           6.1180    14.7710     0.0650 h4         1 N7B       0.168000
     44 H3           7.5340    13.2860     2.1900 ha         1 N7B       0.142000
     45 H4           9.9370    10.2440    -0.8620 ha         1 N7B       0.139000
     46 H5           7.6670    10.9260    -1.3790 ha         1 N7B       0.141000
     47 H6          12.1460    12.9290     4.6340 hc         1 N7B       0.052700
     48 H7          10.7090    13.6710     5.2800 hc         1 N7B       0.052700
     49 H8          11.9310    12.4470     7.0600 hc         1 N7B       0.042367
     50 H9          10.3680    11.6790     6.8060 hc         1 N7B       0.042367
     51 H10         11.8280    10.9440     6.1500 hc         1 N7B       0.042367
     52 H11         11.6080     9.2790     0.3980 h1         1 N7B       0.044200
     53 H12         12.1930    10.6690    -0.5300 h1         1 N7B       0.044200
     54 H13         14.0740     9.5660     0.3510 h1         1 N7B       0.027200
     55 H14         13.9180    11.1080     1.1900 h1         1 N7B       0.027200
     56 H15          7.6140     8.0720     0.7180 ha         1 N7B       0.134000
     57 H16          2.6230     4.7470    -0.3050 h4         1 N7B       0.050800
     58 H17          6.0670     1.9780     0.6600 h1         1 N7B       0.070200
     59 H18          7.4110     3.0230     0.2440 h1         1 N7B       0.070200
     60 H19          9.0220     3.0090     1.9370 ha         1 N7B       0.134500
     61 H20          9.6680     3.1220     4.3130 ha         1 N7B       0.132500
     62 H21          7.9230     3.2290     6.0690 ha         1 N7B       0.132000
     63 H22          5.5340     3.2160     5.4240 ha         1 N7B       0.132500
     64 H23          4.8900     3.0900     3.0550 ha         1 N7B       0.134500
     65 H24          7.8540     5.6590     0.9640 ha         1 N7B       0.143000
     66 H25          3.4580     7.6950    -0.3270 ha         1 N7B       0.175000
     67 H26         10.2270    13.7620     2.9820 hn         1 N7B       0.318500
     68 H27          6.4310     9.8390     0.3930 hn         1 N7B       0.453800
     69 H28          3.7020    14.6610    -0.5880 hn         1 N7B       0.313700
     70 H29         14.2580     9.3690     2.6790 ho         1 N7B       0.404000
@<TRIPOS>BOND
     1     1     2 ar  
     2     1     5 ar  
     3     1    35 1   
     4     2     3 ar  
     5     2     8 1   
     6     3     4 ar  
     7     3    38 1   
     8     4     6 ar  
     9     5     6 ar  
    10     6    42 1   
    11     7     8 2   
    12     7    38 1   
    13     7    43 1   
    14     8     9 1   
    15     9    10 ar  
    16     9    14 ar  
    17    10    11 ar  
    18    10    44 1   
    19    11    12 ar  
    20    11    34 1   
    21    12    13 ar  
    22    12    40 1   
    23    13    14 ar  
    24    13    45 1   
    25    14    46 1   
    26    15    16 1   
    27    15    34 1   
    28    15    39 2   
    29    16    17 1   
    30    16    47 1   
    31    16    48 1   
    32    17    49 1   
    33    17    50 1   
    34    17    51 1   
    35    18    19 1   
    36    18    40 1   
    37    18    52 1   
    38    18    53 1   
    39    19    41 1   
    40    19    54 1   
    41    19    55 1   
    42    20    31 ar  
    43    20    32 ar  
    44    20    56 1   
    45    21    22 ar  
    46    21    32 ar  
    47    21    36 1   
    48    22    23 1   
    49    22    33 ar  
    50    23    37 2   
    51    23    57 1   
    52    24    25 1   
    53    24    36 1   
    54    24    58 1   
    55    24    59 1   
    56    25    26 ar  
    57    25    30 ar  
    58    26    27 ar  
    59    26    60 1   
    60    27    28 ar  
    61    27    61 1   
    62    28    29 ar  
    63    28    62 1   
    64    29    30 ar  
    65    29    63 1   
    66    30    64 1   
    67    31    33 ar  
    68    31    35 1   
    69    32    65 1   
    70    33    66 1   
    71    34    67 1   
    72    35    68 1   
    73    36    37 1   
    74    38    69 1   
    75    41    70 1   
@<TRIPOS>SUBSTRUCTURE
     1 N7B         1 TEMP              0 ****  ****    0 ROOT
