@<TRIPOS>MOLECULE
N7B
   70    75     1     0     0
SMALL
No Charge or Current Charge


@<TRIPOS>ATOM
      1 C4           4.5250    10.2980     0.1520 ca         1 N7B       0.438900
      2 C5           4.7650    11.6850     0.2090 ca         1 N7B      -0.246800
      3 C6           3.6970    12.5490     0.1090 ca         1 N7B       0.145500
      4 N1           2.4470    12.1100    -0.1180 nb         1 N7B      -0.228000
      5 N3           3.2780     9.8410    -0.0680 nb         1 N7B      -0.291000
      6 C2           2.3050    10.7690    -0.2170 ca         1 N7B       0.179900
      7 CAA          5.5380    13.8310     0.6350 cc         1 N7B      -0.166100
      8 CAB          5.9380    12.5150     0.4680 cd         1 N7B      -0.050400
      9 CAC          7.3270    12.0500     0.6670 ca         1 N7B      -0.059800
     10 CAD          8.1580    12.7020     1.6000 ca         1 N7B      -0.071000
     11 CAE          9.4840    12.2800     1.8130 ca         1 N7B      -0.076000
     12 CAF         10.0220    11.2280     1.0350 ca         1 N7B       0.158100
     13 CAG          9.2070    10.6040     0.0660 ca         1 N7B      -0.203000
     14 CAH          7.8780    11.0180    -0.1170 ca         1 N7B      -0.078000
     15 CAJ         11.0110    12.4540     3.8360 c          1 N7B       0.610100
     16 CAK         11.8300    13.5040     4.6010 c3         1 N7B      -0.155400
     17 CAM         11.2230    13.8060     5.9890 c3         1 N7B      -0.076100
     18 CAO         11.9940     9.8770     0.3880 c3         1 N7B       0.161600
     19 CAP         13.4890     9.7860     0.7850 c3         1 N7B       0.162600
     20 CAS          6.6900     7.3760     1.1300 ca         1 N7B      -0.121000
     21 CAT          6.0470     5.2220     0.2760 ca         1 N7B      -0.058200
     22 CAU          5.0520     5.7930    -0.4490 ca         1 N7B      -0.208900
     23 CAX          4.4080     4.7100    -1.1550 cc         1 N7B       0.351800
     24 CAY          6.9080     2.8750     0.6090 c3         1 N7B       0.141900
     25 CAZ          6.8050     2.7470     2.1300 ca         1 N7B      -0.118300
     26 CBA          7.9750     2.5980     2.9020 ca         1 N7B      -0.092500
     27 CBB          7.8930     2.4830     4.3010 ca         1 N7B      -0.110500
     28 CBC          6.6410     2.5120     4.9380 ca         1 N7B      -0.100000
     29 CBD          5.4710     2.6540     4.1750 ca         1 N7B      -0.110500
     30 CBE          5.5510     2.7700     2.7760 ca         1 N7B      -0.092500
     31 CBF          5.6440     7.9820     0.3870 ca         1 N7B       0.264000
     32 CBG          6.9030     5.9800     1.0860 ca         1 N7B      -0.094000
     33 CBH          4.8130     7.1750    -0.4310 ca         1 N7B      -0.062000
     34 NAI         10.2550    12.9610     2.7900 ns         1 N7B      -0.174000
     35 NAR          5.5090     9.3740     0.4690 nu         1 N7B      -0.924900
     36 NAV          5.9920     3.8680     0.0140 na         1 N7B       0.074600
     37 NAW          4.9770     3.5240    -0.8800 nd         1 N7B      -0.522100
     38 NBN          4.1590    13.8290     0.3490 na         1 N7B      -0.311400
     39 OAL         11.0330    11.2670     4.1420 o          1 N7B      -0.569100
     40 OAN         11.3540    10.8880     1.1930 os         1 N7B      -0.322100
     41 OAQ         13.6540     9.2330     2.1030 oh         1 N7B      -0.640000
     42 H1           1.2990    10.3970    -0.4010 h5         1 N7B       0.045100
     43 H2           6.1020    14.7300     0.8730 h4         1 N7B       0.218000
     44 H3           7.7600    13.5170     2.1990 ha         1 N7B       0.124000
     45 H4           9.5910     9.8140    -0.5720 ha         1 N7B       0.121000
     46 H5           7.2930    10.5680    -0.9170 ha         1 N7B       0.123000
     47 H6          12.8460    13.1190     4.7490 hc         1 N7B       0.052700
     48 H7          11.8700    14.4400     4.0310 hc         1 N7B       0.052700
     49 H8          11.8240    14.5570     6.5160 hc         1 N7B       0.042367
     50 H9          10.2010    14.1940     5.8890 hc         1 N7B       0.042367
     51 H10         11.1900    12.9000     6.6060 hc         1 N7B       0.042367
     52 H11         11.5160     8.8990     0.5300 h1         1 N7B       0.044200
     53 H12         11.9310    10.1410    -0.6760 h1         1 N7B       0.044200
     54 H13         14.0050     9.1540     0.0490 h1         1 N7B       0.027200
     55 H14         13.9360    10.7870     0.7290 h1         1 N7B       0.027200
     56 H15          7.3390     7.9900     1.7480 ha         1 N7B       0.116000
     57 H16          3.5730     4.7140    -1.8430 h4         1 N7B       0.050800
     58 H17          6.7020     1.8960     0.1570 h1         1 N7B       0.070200
     59 H18          7.9320     3.1530     0.3300 h1         1 N7B       0.070200
     60 H19          8.9500     2.5740     2.4210 ha         1 N7B       0.116500
     61 H20          8.8000     2.3700     4.8910 ha         1 N7B       0.114500
     62 H21          6.5790     2.4220     6.0210 ha         1 N7B       0.114000
     63 H22          4.5010     2.6740     4.6670 ha         1 N7B       0.114500
     64 H23          4.6360     2.8760     2.1980 ha         1 N7B       0.116500
     65 H24          7.7020     5.5160     1.6600 ha         1 N7B       0.125000
     66 H25          4.0240     7.6020    -1.0410 ha         1 N7B       0.157000
     67 H26         10.2740    13.9690     2.6940 hn         1 N7B       0.152000
     68 H27          6.3230     9.8390     0.8670 hn         1 N7B       0.509000
     69 H28          3.5620    14.6510     0.3450 hn         1 N7B       0.364000
     70 H29         14.6170     9.2430     2.3000 ho         1 N7B       0.443000
@<TRIPOS>BOND
     1     1     2 ar  
     2     1     5 ar  
     3     1    35 1   
     4     2     3 ar  
     5     2     8 1   
     6     3     4 ar  
     7     3    38 1   
     8     4     6 ar  
     9     5     6 ar  
    10     6    42 1   
    11     7     8 2   
    12     7    38 1   
    13     7    43 1   
    14     8     9 1   
    15     9    10 ar  
    16     9    14 ar  
    17    10    11 ar  
    18    10    44 1   
    19    11    12 ar  
    20    11    34 1   
    21    12    13 ar  
    22    12    40 1   
    23    13    14 ar  
    24    13    45 1   
    25    14    46 1   
    26    15    16 1   
    27    15    34 1   
    28    15    39 2   
    29    16    17 1   
    30    16    47 1   
    31    16    48 1   
    32    17    49 1   
    33    17    50 1   
    34    17    51 1   
    35    18    19 1   
    36    18    40 1   
    37    18    52 1   
    38    18    53 1   
    39    19    41 1   
    40    19    54 1   
    41    19    55 1   
    42    20    31 ar  
    43    20    32 ar  
    44    20    56 1   
    45    21    22 ar  
    46    21    32 ar  
    47    21    36 1   
    48    22    23 1   
    49    22    33 ar  
    50    23    37 2   
    51    23    57 1   
    52    24    25 1   
    53    24    36 1   
    54    24    58 1   
    55    24    59 1   
    56    25    26 ar  
    57    25    30 ar  
    58    26    27 ar  
    59    26    60 1   
    60    27    28 ar  
    61    27    61 1   
    62    28    29 ar  
    63    28    62 1   
    64    29    30 ar  
    65    29    63 1   
    66    30    64 1   
    67    31    33 ar  
    68    31    35 1   
    69    32    65 1   
    70    33    66 1   
    71    34    67 1   
    72    35    68 1   
    73    36    37 1   
    74    38    69 1   
    75    41    70 1   
@<TRIPOS>SUBSTRUCTURE
     1 N7B         1 TEMP              0 ****  ****    0 ROOT
