@<TRIPOS>MOLECULE
N7C
   26    27     1     0     0
SMALL
abcg2


@<TRIPOS>ATOM
      1 C01          1.1160   -24.3200   -53.5890 c3         1 N7C       0.070900
      2 N02          1.2880   -22.8990   -53.3480 na         1 N7C      -0.189600
      3 C03          0.7180   -22.1680   -52.3240 ca         1 N7C      -0.050200
      4 C04          1.1780   -20.8550   -52.5190 ca         1 N7C       0.012400
      5 N05          2.0030   -20.7950   -53.6280 nc         1 N7C      -0.591100
      6 C06          2.0370   -22.0280   -54.0830 cd         1 N7C       0.418700
      7 C07          0.7880   -19.8240   -51.6460 ca         1 N7C       0.040000
      8 N08          1.2900   -18.5500   -51.9220 ns         1 N7C      -0.132000
      9 C09          1.0920   -17.3790   -51.2510 c          1 N7C       0.604300
     10 C10          1.7990   -16.2250   -51.8690 ce         1 N7C      -0.298200
     11 C11          1.7330   -15.0050   -51.3460 c2         1 N7C      -0.229000
     12 O12          0.4020   -17.2830   -50.2390 o          1 N7C      -0.591100
     13 C13         -0.0610   -20.1640   -50.5940 ca         1 N7C      -0.165000
     14 C14         -0.5020   -21.4880   -50.4240 ca         1 N7C      -0.063000
     15 C15         -0.1310   -22.5180   -51.2750 ca         1 N7C      -0.147000
     16 H1           0.0640   -24.5470   -53.7640 h1         1 N7C       0.052367
     17 H2           1.6950   -24.5970   -54.4670 h1         1 N7C       0.052367
     18 H3           1.4680   -24.8930   -52.7300 h1         1 N7C       0.052367
     19 H4           2.5880   -22.3610   -54.9500 h5         1 N7C       0.060800
     20 H5           1.8850   -18.5110   -52.7380 hn         1 N7C       0.173000
     21 H6           2.3750   -16.4140   -52.7680 ha         1 N7C       0.181000
     22 H8           2.2490   -14.1700   -51.8010 ha         1 N7C       0.178000
     23 H9           1.1570   -14.8170   -50.4480 ha         1 N7C       0.178000
     24 H11         -0.3810   -19.4010   -49.9050 ha         1 N7C       0.150000
     25 H12         -1.1600   -21.7030   -49.5920 ha         1 N7C       0.115000
     26 H13         -0.4800   -23.5310   -51.1290 ha         1 N7C       0.118000
@<TRIPOS>BOND
     1     1     2 1   
     2     1    16 1   
     3     1    17 1   
     4     1    18 1   
     5     2     3 1   
     6     2     6 1   
     7     3     4 ar  
     8     3    15 ar  
     9     4     5 1   
    10     4     7 ar  
    11     5     6 2   
    12     6    19 1   
    13     7     8 1   
    14     7    13 ar  
    15     8     9 1   
    16     8    20 1   
    17     9    10 1   
    18     9    12 2   
    19    10    11 2   
    20    10    21 1   
    21    11    22 1   
    22    11    23 1   
    23    13    14 ar  
    24    13    24 1   
    25    14    15 ar  
    26    14    25 1   
    27    15    26 1   
@<TRIPOS>SUBSTRUCTURE
     1 N7C         1 TEMP              0 ****  ****    0 ROOT
