@<TRIPOS>MOLECULE
N7C
   26    27     1     0     0
SMALL
No Charge or Current Charge


@<TRIPOS>ATOM
      1 C01          1.0850   -24.3640   -53.5590 c3         1 N7C       0.070900
      2 N02          1.2950   -22.9220   -53.3710 na         1 N7C      -0.189600
      3 C03          0.7540   -22.1600   -52.3730 ca         1 N7C      -0.050200
      4 C04          1.1850   -20.8730   -52.5410 ca         1 N7C       0.012400
      5 N05          2.0170   -20.7550   -53.6490 nc         1 N7C      -0.591100
      6 C06          2.0600   -22.0190   -54.1270 cd         1 N7C       0.418700
      7 C07          0.7850   -19.8540   -51.6530 ca         1 N7C       0.040000
      8 N08          1.2690   -18.5390   -51.8840 ns         1 N7C      -0.132000
      9 C09          1.0730   -17.3400   -51.2170 c          1 N7C       0.604300
     10 C10          1.7980   -16.1850   -51.8330 ce         1 N7C      -0.298200
     11 C11          1.7590   -14.9140   -51.3600 c2         1 N7C      -0.229000
     12 O12          0.3790   -17.2070   -50.2170 o          1 N7C      -0.591100
     13 C13         -0.0760   -20.2110   -50.5840 ca         1 N7C      -0.165000
     14 C14         -0.5130   -21.5470   -50.4240 ca         1 N7C      -0.063000
     15 C15         -0.0960   -22.5430   -51.3280 ca         1 N7C      -0.147000
     16 H1           0.0160   -24.5650   -53.7050 h1         1 N7C       0.052367
     17 H2           1.6400   -24.7100   -54.4400 h1         1 N7C       0.052367
     18 H3           1.4390   -24.9060   -52.6730 h1         1 N7C       0.052367
     19 H4           2.6140   -22.3480   -54.9980 h5         1 N7C       0.060800
     20 H5           1.8720   -18.4720   -52.6930 hn         1 N7C       0.173000
     21 H6           2.3870   -16.4160   -52.7210 ha         1 N7C       0.181000
     22 H8           2.3060   -14.1030   -51.8450 ha         1 N7C       0.178000
     23 H9           1.1810   -14.6430   -50.4740 ha         1 N7C       0.178000
     24 H11         -0.4190   -19.4720   -49.8670 ha         1 N7C       0.150000
     25 H12         -1.1740   -21.8070   -49.6000 ha         1 N7C       0.115000
     26 H13         -0.4270   -23.5720   -51.2130 ha         1 N7C       0.118000
@<TRIPOS>BOND
     1     1     2 1   
     2     1    16 1   
     3     1    17 1   
     4     1    18 1   
     5     2     3 1   
     6     2     6 1   
     7     3     4 ar  
     8     3    15 ar  
     9     4     5 1   
    10     4     7 ar  
    11     5     6 2   
    12     6    19 1   
    13     7     8 1   
    14     7    13 ar  
    15     8     9 1   
    16     8    20 1   
    17     9    10 1   
    18     9    12 2   
    19    10    11 2   
    20    10    21 1   
    21    11    22 1   
    22    11    23 1   
    23    13    14 ar  
    24    13    24 1   
    25    14    15 ar  
    26    14    25 1   
    27    15    26 1   
@<TRIPOS>SUBSTRUCTURE
     1 N7C         1 TEMP              0 ****  ****    0 ROOT
