@<TRIPOS>MOLECULE
N7D
   36    36     1     0     0
SMALL
bcc


@<TRIPOS>ATOM
      1 OAR         -0.7910     6.3460     8.5300 oh         1 N7D      -0.595800
      2 CAQ          0.5080     6.2530     9.0750 c3         1 N7D       0.140400
      3 CAP          0.8320     4.7950     9.3440 c3         1 N7D      -0.070400
      4 CAO         -0.0920     4.1020    10.3410 c3         1 N7D      -0.101400
      5 CAN          0.0110     4.6730    11.7520 c3         1 N7D       0.114000
      6 NAM         -0.7710     3.9410    12.7240 ns         1 N7D      -0.585900
      7 CAL         -2.0830     4.1880    12.9310 c          1 N7D       0.792100
      8 OAS         -2.6880     5.1070    12.3990 o          1 N7D      -0.617100
      9 NAK         -2.6720     3.3110    13.8190 ns         1 N7D      -0.495100
     10 CAC         -3.9710     3.3680    14.3100 ca         1 N7D       0.072600
     11 CAD         -4.2130     2.7870    15.5540 ca         1 N7D      -0.089000
     12 CAB         -5.0450     3.9310    13.6110 ca         1 N7D      -0.091000
     13 CAA         -6.3160     3.9190    14.1620 ca         1 N7D      -0.124000
     14 CAF         -6.5660     3.3470    15.4010 ca         1 N7D      -0.066000
     15 CAE         -5.4970     2.7790    16.0740 ca         1 N7D      -0.237500
     16 SAG         -5.7550     2.0330    17.6600 sy         1 N7D       1.265200
     17 OAH         -4.5830     2.2510    18.4960 o          1 N7D      -0.615800
     18 OAI         -7.0510     2.4770    18.1540 o          1 N7D      -0.615800
     19 NAJ         -5.7350     0.4290    17.2670 n8         1 N7D      -0.894700
     20 H1          -1.0210     7.2760     8.4600 ho         1 N7D       0.404000
     21 H2           1.2600     6.6590     8.3850 h1         1 N7D       0.015700
     22 H3           0.5930     6.8340    10.0020 h1         1 N7D       0.015700
     23 H4           0.8170     4.2470     8.3980 hc         1 N7D       0.045700
     24 H5           1.8640     4.7440     9.7040 hc         1 N7D       0.045700
     25 H6          -1.1290     4.1610    10.0020 hc         1 N7D       0.054700
     26 H7           0.1640     3.0390    10.3760 hc         1 N7D       0.054700
     27 H8           1.0500     4.6470    12.0870 h1         1 N7D       0.055700
     28 H9          -0.2980     5.7170    11.7730 h1         1 N7D       0.055700
     29 H10         -0.3570     3.1070    13.1070 hn         1 N7D       0.306500
     30 H11         -2.0580     2.6810    14.3130 hn         1 N7D       0.312500
     31 H12         -3.3920     2.3470    16.1090 ha         1 N7D       0.148000
     32 H13         -4.8960     4.3710    12.6390 ha         1 N7D       0.168000
     33 H14         -7.1320     4.3620    13.6060 ha         1 N7D       0.139000
     34 H15         -7.5640     3.3450    15.8160 ha         1 N7D       0.157000
     35 H16         -5.5440    -0.1500    18.0800 hn         1 N7D       0.417800
     36 H17         -6.5900     0.1240    16.8130 hn         1 N7D       0.417800
@<TRIPOS>BOND
     1     1     2 1   
     2     1    20 1   
     3     2     3 1   
     4     2    21 1   
     5     2    22 1   
     6     3     4 1   
     7     3    23 1   
     8     3    24 1   
     9     4     5 1   
    10     4    25 1   
    11     4    26 1   
    12     5     6 1   
    13     5    27 1   
    14     5    28 1   
    15     6     7 1   
    16     6    29 1   
    17     7     8 2   
    18     7     9 1   
    19     9    10 1   
    20     9    30 1   
    21    10    11 ar  
    22    10    12 ar  
    23    11    15 ar  
    24    11    31 1   
    25    12    13 ar  
    26    12    32 1   
    27    13    14 ar  
    28    13    33 1   
    29    14    15 ar  
    30    14    34 1   
    31    15    16 1   
    32    16    17 2   
    33    16    18 2   
    34    16    19 1   
    35    19    35 1   
    36    19    36 1   
@<TRIPOS>SUBSTRUCTURE
     1 N7D         1 TEMP              0 ****  ****    0 ROOT
