@<TRIPOS>MOLECULE
N7D
   36    36     1     0     0
SMALL
No Charge or Current Charge


@<TRIPOS>ATOM
      1 OAR         -0.5900     6.1740     8.2070 oh         1 N7D      -0.658000
      2 CAQ          0.6870     6.0640     8.8450 c3         1 N7D       0.163600
      3 CAP          0.9270     4.6140     9.3270 c3         1 N7D      -0.070400
      4 CAO         -0.0510     4.1070    10.4180 c3         1 N7D      -0.101400
      5 CAN          0.0290     4.8910    11.7450 c3         1 N7D       0.114000
      6 NAM         -0.8110     4.2950    12.7880 ns         1 N7D      -0.518900
      7 CAL         -2.1730     4.4620    12.8870 c          1 N7D       0.658100
      8 OAS         -2.8060     5.1610    12.1100 o          1 N7D      -0.617100
      9 NAK         -2.7120     3.7590    13.9530 ns         1 N7D      -0.169000
     10 CAC         -4.0440     3.6280    14.4370 ca         1 N7D      -0.020000
     11 CAD         -4.2450     2.8360    15.5850 ca         1 N7D      -0.071000
     12 CAB         -5.1600     4.2440    13.8270 ca         1 N7D      -0.073000
     13 CAA         -6.4480     4.0670    14.3610 ca         1 N7D      -0.106000
     14 CAF         -6.6410     3.2770    15.5060 ca         1 N7D      -0.048000
     15 CAE         -5.5370     2.6580    16.1260 ca         1 N7D      -0.237500
     16 SAG         -5.7770     1.6410    17.5960 sy         1 N7D       1.123600
     17 OAH         -4.5310     1.4990    18.3450 o          1 N7D      -0.545000
     18 OAI         -7.0460     1.9560    18.2490 o          1 N7D      -0.545000
     19 NAJ         -6.0250     0.1490    16.9830 n8         1 N7D      -1.005100
     20 H1          -0.6810     7.1080     7.9120 ho         1 N7D       0.443000
     21 H2           1.4820     6.3350     8.1380 h1         1 N7D       0.015700
     22 H3           0.7530     6.7530     9.6960 h1         1 N7D       0.015700
     23 H4           0.8720     3.9410     8.4610 hc         1 N7D       0.045700
     24 H5           1.9520     4.5390     9.7090 hc         1 N7D       0.045700
     25 H6          -1.0780     4.1410    10.0340 hc         1 N7D       0.054700
     26 H7           0.1720     3.0520    10.6190 hc         1 N7D       0.054700
     27 H8           1.0680     4.8990    12.1020 h1         1 N7D       0.055700
     28 H9          -0.2810     5.9320    11.5870 h1         1 N7D       0.055700
     29 H10         -0.3680     3.7020    13.4790 hn         1 N7D       0.306500
     30 H11         -2.0330     3.2370    14.4910 hn         1 N7D       0.146000
     31 H12         -3.3900     2.3550    16.0580 ha         1 N7D       0.130000
     32 H13         -5.0530     4.8610    12.9400 ha         1 N7D       0.150000
     33 H14         -7.3020     4.5440    13.8840 ha         1 N7D       0.121000
     34 H15         -7.6460     3.1480    15.9060 ha         1 N7D       0.139000
     35 H16         -5.3340    -0.3810    17.5090 hn         1 N7D       0.473000
     36 H17         -6.8910    -0.1010    17.4540 hn         1 N7D       0.473000
@<TRIPOS>BOND
     1     1     2 1   
     2     1    20 1   
     3     2     3 1   
     4     2    21 1   
     5     2    22 1   
     6     3     4 1   
     7     3    23 1   
     8     3    24 1   
     9     4     5 1   
    10     4    25 1   
    11     4    26 1   
    12     5     6 1   
    13     5    27 1   
    14     5    28 1   
    15     6     7 1   
    16     6    29 1   
    17     7     8 2   
    18     7     9 1   
    19     9    10 1   
    20     9    30 1   
    21    10    11 ar  
    22    10    12 ar  
    23    11    15 ar  
    24    11    31 1   
    25    12    13 ar  
    26    12    32 1   
    27    13    14 ar  
    28    13    33 1   
    29    14    15 ar  
    30    14    34 1   
    31    15    16 1   
    32    16    17 2   
    33    16    18 2   
    34    16    19 1   
    35    19    35 1   
    36    19    36 1   
@<TRIPOS>SUBSTRUCTURE
     1 N7D         1 TEMP              0 ****  ****    0 ROOT
