@<TRIPOS>MOLECULE
N7F
   64    69     1     0     0
SMALL
No Charge or Current Charge


@<TRIPOS>ATOM
      1 N1          -1.8330    -1.7240    -0.2770 n          1 N7F      -0.331300
      2 C2          -1.4220    -2.7050     0.6130 cc         1 N7F       0.484800
      3 N3          -0.1630    -2.9530     0.9860 nd         1 N7F      -0.574100
      4 C4          -0.9110    -0.8820    -0.8880 c          1 N7F       0.596600
      5 C5           0.4590    -1.1470    -0.4660 cc         1 N7F      -0.295600
      6 C6           0.7920    -2.1250     0.4170 cd         1 N7F       0.186400
      7 C7           2.1790    -2.1600     0.6400 cd         1 N7F      -0.144000
      8 C8           2.7310    -1.1650    -0.1290 cc         1 N7F       0.311000
      9 N9           1.6710    -0.5260    -0.7990 na         1 N7F       0.049000
     10 C10          2.8730    -3.0710     1.4750 ch         1 N7F       0.370000
     11 N11          3.4460    -3.8030     2.1830 n1         1 N7F      -0.471000
     12 N12          4.0770    -0.8350    -0.2290 nh         1 N7F      -0.812400
     13 C13          4.9560    -0.6960     0.9730 c6         1 N7F       0.205800
     14 C14          6.0010     0.4560     0.7870 c6         1 N7F       0.157500
     15 C15          6.7990     0.2580    -0.5260 c6         1 N7F      -0.079400
     16 C16          5.8360     0.0990    -1.7300 c6         1 N7F      -0.080400
     17 C17          4.8250    -1.0500    -1.4970 c6         1 N7F       0.202800
     18 N18          6.9330     0.5770     1.9370 n8         1 N7F      -0.996200
     19 C19          1.8030     0.6750    -1.6450 c3         1 N7F       0.119900
     20 C20          1.4820     1.9730    -0.9060 ca         1 N7F      -0.121300
     21 C21          2.1840     2.3190     0.2660 ca         1 N7F      -0.085000
     22 C22          1.8840     3.5110     0.9470 ca         1 N7F      -0.117500
     23 C23          0.8830     4.3670     0.4610 ca         1 N7F      -0.094000
     24 C24          0.1820     4.0300    -0.7100 ca         1 N7F      -0.117500
     25 C25          0.4810     2.8380    -1.3920 ca         1 N7F      -0.085000
     26 O26         -1.2260    -0.0150    -1.6910 o          1 N7F      -0.549000
     27 C27         -3.2720    -1.5510    -0.5810 c3         1 N7F       0.133300
     28 C28         -6.1170    -0.8310    -1.0010 ca         1 N7F      -0.101000
     29 C29         -7.4650    -0.5050    -1.2210 ca         1 N7F      -0.101000
     30 C30         -8.0770     0.5000    -0.4610 ca         1 N7F      -0.103000
     31 C31         -7.3390     1.1790     0.5220 ca         1 N7F      -0.078000
     32 C32         -4.0000    -0.4640     0.2260 ca         1 N7F      -0.047300
     33 C33         -5.3640    -0.1510    -0.0120 ca         1 N7F      -0.070000
     34 C34         -5.9870     0.8700     0.7620 ca         1 N7F       0.268000
     35 N35         -5.3230     1.5530     1.7220 nb         1 N7F      -0.655000
     36 C36         -4.0270     1.2520     1.9490 ca         1 N7F       0.353900
     37 C37         -3.3370     0.2640     1.2370 ca         1 N7F      -0.156000
     38 H2          -2.2270    -3.3020     1.0230 h5         1 N7F       0.052800
     39 H271        -3.3790    -1.3280    -1.6510 h1         1 N7F       0.076700
     40 H272        -3.7840    -2.5080    -0.4110 h1         1 N7F       0.076700
     41 H191         2.8280     0.7370    -2.0260 h1         1 N7F       0.081200
     42 H192         1.1490     0.5620    -2.5170 h1         1 N7F       0.081200
     43 H131         4.3490    -0.4870     1.8670 h1         1 N7F       0.061200
     44 H132         5.4910    -1.6400     1.1560 h1         1 N7F       0.061200
     45 H171         5.3670    -2.0060    -1.4500 h1         1 N7F       0.046200
     46 H172         4.1370    -1.1130    -2.3520 h1         1 N7F       0.046200
     47 H14          5.4560     1.4090     0.7180 h1         1 N7F       0.023700
     48 H151         7.4680     1.1120    -0.6980 hc         1 N7F       0.052200
     49 H152         7.4360    -0.6340    -0.4470 hc         1 N7F       0.052200
     50 H181         7.5720     1.3600     1.7600 hn         1 N7F       0.399000
     51 H182         6.4040     0.8870     2.7620 hn         1 N7F       0.399000
     52 H161         5.2910     1.0390    -1.8940 hc         1 N7F       0.050200
     53 H162         6.4090    -0.0940    -2.6460 hc         1 N7F       0.050200
     54 H21          2.9630     1.6650     0.6520 ha         1 N7F       0.122500
     55 H25         -0.0710     2.5860    -2.2950 ha         1 N7F       0.122500
     56 H22          2.4290     3.7710     1.8520 ha         1 N7F       0.114000
     57 H23          0.6500     5.2900     0.9880 ha         1 N7F       0.114000
     58 H24         -0.5940     4.6920    -1.0880 ha         1 N7F       0.114000
     59 H29         -8.0340    -1.0330    -1.9830 ha         1 N7F       0.116000
     60 H30         -9.1210     0.7540    -0.6310 ha         1 N7F       0.118000
     61 H31         -7.8210     1.9570     1.1090 ha         1 N7F       0.133000
     62 H37         -2.2960     0.0850     1.4840 ha         1 N7F       0.128000
     63 H36         -3.5270     1.8230     2.7310 h4         1 N7F       0.020100
     64 H28         -5.6770    -1.6160    -1.6080 ha         1 N7F       0.111000
@<TRIPOS>BOND
     1     1     2 1   
     2     1     4 1   
     3     1    27 1   
     4     2     3 2   
     5     2    38 1   
     6     3     6 1   
     7     4     5 1   
     8     4    26 2   
     9     5     6 2   
    10     5     9 1   
    11     6     7 1   
    12     7     8 2   
    13     7    10 1   
    14     8     9 1   
    15     8    12 1   
    16     9    19 1   
    17    10    11 3   
    18    12    13 1   
    19    12    17 1   
    20    13    14 1   
    21    13    43 1   
    22    13    44 1   
    23    14    15 1   
    24    14    18 1   
    25    14    47 1   
    26    15    16 1   
    27    15    48 1   
    28    15    49 1   
    29    16    17 1   
    30    16    52 1   
    31    16    53 1   
    32    17    45 1   
    33    17    46 1   
    34    18    50 1   
    35    18    51 1   
    36    19    20 1   
    37    19    41 1   
    38    19    42 1   
    39    20    21 ar  
    40    20    25 ar  
    41    21    22 ar  
    42    21    54 1   
    43    22    23 ar  
    44    22    56 1   
    45    23    24 ar  
    46    23    57 1   
    47    24    25 ar  
    48    24    58 1   
    49    25    55 1   
    50    27    32 1   
    51    27    39 1   
    52    27    40 1   
    53    28    29 ar  
    54    28    33 ar  
    55    28    64 1   
    56    29    30 ar  
    57    29    59 1   
    58    30    31 ar  
    59    30    60 1   
    60    31    34 ar  
    61    31    61 1   
    62    32    33 ar  
    63    32    37 ar  
    64    33    34 ar  
    65    34    35 ar  
    66    35    36 ar  
    67    36    37 ar  
    68    36    63 1   
    69    37    62 1   
@<TRIPOS>SUBSTRUCTURE
     1 N7F         1 TEMP              0 ****  ****    0 ROOT
