@<TRIPOS>MOLECULE
N7F
   64    69     1     0     0
SMALL
abcg2


@<TRIPOS>ATOM
      1 N1          -1.7990    -1.8240    -0.0950 n          1 N7F      -0.331300
      2 C2          -1.3900    -2.6360     0.9170 cc         1 N7F       0.484800
      3 N3          -0.1740    -2.7690     1.3180 nd         1 N7F      -0.574100
      4 C4          -0.9250    -1.0360    -0.8600 c          1 N7F       0.596600
      5 C5           0.4060    -1.1300    -0.3660 cc         1 N7F      -0.295600
      6 C6           0.7240    -1.9920     0.6660 cd         1 N7F       0.186400
      7 C7           2.1280    -1.9170     0.8530 cd         1 N7F      -0.144000
      8 C8           2.6100    -0.9840    -0.0710 cc         1 N7F       0.311000
      9 N9           1.5610    -0.5130    -0.8000 na         1 N7F       0.049000
     10 C10          2.8610    -2.7250     1.7400 ch         1 N7F       0.370000
     11 N11          3.4210    -3.4130     2.4790 n1         1 N7F      -0.471000
     12 N12          3.8770    -0.5230    -0.2820 nh         1 N7F      -0.812400
     13 C13          4.8060    -0.5400     0.8390 c6         1 N7F       0.205800
     14 C14          5.9200     0.4780     0.6110 c6         1 N7F       0.157500
     15 C15          6.6250     0.1860    -0.7070 c6         1 N7F      -0.079400
     16 C16          5.6280     0.1330    -1.8570 c6         1 N7F      -0.080400
     17 C17          4.5160    -0.8560    -1.5600 c6         1 N7F       0.202800
     18 N18          6.8590     0.3880     1.7160 n8         1 N7F      -0.996200
     19 C19          1.5870     0.7350    -1.5670 c3         1 N7F       0.119900
     20 C20          1.4210     1.9330    -0.6670 ca         1 N7F      -0.121300
     21 C21          2.5370     2.6180    -0.1960 ca         1 N7F      -0.085000
     22 C22          2.3930     3.7020     0.6600 ca         1 N7F      -0.117500
     23 C23          1.1270     4.1120     1.0570 ca         1 N7F      -0.094000
     24 C24          0.0070     3.4400     0.5830 ca         1 N7F      -0.117500
     25 C25          0.1540     2.3600    -0.2760 ca         1 N7F      -0.085000
     26 O26         -1.3430    -0.3760    -1.8000 o          1 N7F      -0.549000
     27 C27         -3.2140    -1.7380    -0.4090 c3         1 N7F       0.133300
     28 C28         -5.9800    -1.0040    -1.0900 ca         1 N7F      -0.101000
     29 C29         -7.2700    -0.6640    -1.3980 ca         1 N7F      -0.101000
     30 C30         -7.8430     0.5110    -0.8740 ca         1 N7F      -0.103000
     31 C31         -7.1140     1.3260    -0.0520 ca         1 N7F      -0.078000
     32 C32         -3.8580    -0.4830     0.1180 ca         1 N7F      -0.047300
     33 C33         -5.2000    -0.1830    -0.2430 ca         1 N7F      -0.070000
     34 C34         -5.7800     1.0000     0.2840 ca         1 N7F       0.268000
     35 N35         -5.1080     1.8420     1.1060 nb         1 N7F      -0.655000
     36 C36         -3.8820     1.5320     1.4220 ca         1 N7F       0.353900
     37 C37         -3.2130     0.3810     0.9600 ca         1 N7F      -0.156000
     38 H2          -2.1740    -3.2050     1.4000 h5         1 N7F       0.052800
     39 H271        -3.3380    -1.8090    -1.4890 h1         1 N7F       0.076700
     40 H272        -3.7090    -2.6120     0.0180 h1         1 N7F       0.076700
     41 H191         2.5240     0.7940    -2.1140 h1         1 N7F       0.081200
     42 H192         0.7920     0.6810    -2.3040 h1         1 N7F       0.081200
     43 H131         4.2630    -0.2900     1.7530 h1         1 N7F       0.061200
     44 H132         5.2610    -1.5300     0.9750 h1         1 N7F       0.061200
     45 H171         4.9240    -1.8750    -1.5090 h1         1 N7F       0.046200
     46 H172         3.7760    -0.8570    -2.3580 h1         1 N7F       0.046200
     47 H14          5.4500     1.4710     0.5340 h1         1 N7F       0.023700
     48 H151         7.3860     0.9460    -0.8980 hc         1 N7F       0.052200
     49 H152         7.1470    -0.7740    -0.6230 hc         1 N7F       0.052200
     50 H181         7.6350     1.0160     1.5450 hn         1 N7F       0.399000
     51 H182         6.4210     0.7250     2.5650 hn         1 N7F       0.399000
     52 H161         5.1980     1.1230    -2.0330 hc         1 N7F       0.050200
     53 H162         6.1260    -0.1640    -2.7820 hc         1 N7F       0.050200
     54 H21          3.5260     2.3040    -0.5030 ha         1 N7F       0.122500
     55 H25         -0.7280     1.8620    -0.6590 ha         1 N7F       0.122500
     56 H22          3.2700     4.2280     1.0130 ha         1 N7F       0.114000
     57 H23          1.0130     4.9560     1.7240 ha         1 N7F       0.114000
     58 H24         -0.9840     3.7640     0.8740 ha         1 N7F       0.114000
     59 H29         -7.8540    -1.3010    -2.0480 ha         1 N7F       0.116000
     60 H30         -8.8640     0.7660    -1.1260 ha         1 N7F       0.118000
     61 H31         -7.5390     2.2320     0.3610 ha         1 N7F       0.133000
     62 H37         -2.1970     0.2120     1.2910 ha         1 N7F       0.128000
     63 H36         -3.3570     2.2130     2.0830 h4         1 N7F       0.020100
     64 H28         -5.5640    -1.9130    -1.5030 ha         1 N7F       0.111000
@<TRIPOS>BOND
     1     1     2 1   
     2     1     4 1   
     3     1    27 1   
     4     2     3 2   
     5     2    38 1   
     6     3     6 1   
     7     4     5 1   
     8     4    26 2   
     9     5     6 2   
    10     5     9 1   
    11     6     7 1   
    12     7     8 2   
    13     7    10 1   
    14     8     9 1   
    15     8    12 1   
    16     9    19 1   
    17    10    11 3   
    18    12    13 1   
    19    12    17 1   
    20    13    14 1   
    21    13    43 1   
    22    13    44 1   
    23    14    15 1   
    24    14    18 1   
    25    14    47 1   
    26    15    16 1   
    27    15    48 1   
    28    15    49 1   
    29    16    17 1   
    30    16    52 1   
    31    16    53 1   
    32    17    45 1   
    33    17    46 1   
    34    18    50 1   
    35    18    51 1   
    36    19    20 1   
    37    19    41 1   
    38    19    42 1   
    39    20    21 ar  
    40    20    25 ar  
    41    21    22 ar  
    42    21    54 1   
    43    22    23 ar  
    44    22    56 1   
    45    23    24 ar  
    46    23    57 1   
    47    24    25 ar  
    48    24    58 1   
    49    25    55 1   
    50    27    32 1   
    51    27    39 1   
    52    27    40 1   
    53    28    29 ar  
    54    28    33 ar  
    55    28    64 1   
    56    29    30 ar  
    57    29    59 1   
    58    30    31 ar  
    59    30    60 1   
    60    31    34 ar  
    61    31    61 1   
    62    32    33 ar  
    63    32    37 ar  
    64    33    34 ar  
    65    34    35 ar  
    66    35    36 ar  
    67    36    37 ar  
    68    36    63 1   
    69    37    62 1   
@<TRIPOS>SUBSTRUCTURE
     1 N7F         1 TEMP              0 ****  ****    0 ROOT
