@<TRIPOS>MOLECULE
N7G
   51    50     1     0     0
SMALL
bcc


@<TRIPOS>ATOM
      1 C06          7.1490     1.8850    -0.6220 c3         1 N7G      -0.087100
      2 C07          6.1350     1.0450     0.1590 c3         1 N7G      -0.068000
      3 C08          6.8840     0.0490     1.0460 c3         1 N7G      -0.087100
      4 C09          5.3040     1.9800     1.0400 c3         1 N7G      -0.087100
      5 C10          5.2270     0.3230    -0.8730 c3         1 N7G       0.081100
      6 O11          5.9520    -0.5360    -1.7120 oh         1 N7G      -0.583800
      7 C12          4.0970    -0.4760    -0.2220 c          1 N7G       0.636100
      8 O13          4.2730    -1.6470     0.0950 o          1 N7G      -0.611100
      9 N14          2.9400     0.1720    -0.0520 ns         1 N7G      -0.568900
     10 C15          1.7790    -0.3910     0.6040 c3         1 N7G       0.110000
     11 C16          0.5140     0.2290     0.0320 c3         1 N7G      -0.181400
     12 C17         -0.7340    -0.2690     0.7320 c          1 N7G       0.672100
     13 O18         -0.7400    -0.5460     1.9240 o          1 N7G      -0.601100
     14 N19         -1.8210    -0.3430    -0.0500 ns         1 N7G      -0.574900
     15 C20         -3.1390    -0.7300     0.4070 c3         1 N7G       0.100000
     16 C21         -4.2240     0.0690    -0.2990 c3         1 N7G      -0.094400
     17 C22         -5.6190    -0.3540     0.1420 c3         1 N7G      -0.073400
     18 C23         -6.7190     0.4260    -0.5660 c3         1 N7G      -0.080400
     19 C24         -8.0970    -0.0110    -0.1110 c3         1 N7G       0.136400
     20 O25         -9.0780     0.7330    -0.7920 os         1 N7G      -0.408600
     21 C26        -10.3820     0.3840    -0.4070 c3         1 N7G       0.124700
     22 H1           7.7900     2.4380     0.0670 hc         1 N7G       0.038700
     23 H2           7.7910     1.2660    -1.2480 hc         1 N7G       0.038700
     24 H3           6.6500     2.6150    -1.2650 hc         1 N7G       0.038700
     25 H4           7.5440     0.5860     1.7290 hc         1 N7G       0.038700
     26 H5           6.2080    -0.5540     1.6530 hc         1 N7G       0.038700
     27 H6           7.5100    -0.6270     0.4610 hc         1 N7G       0.038700
     28 H7           4.7120     2.6800     0.4450 hc         1 N7G       0.038700
     29 H8           4.6270     1.4420     1.7050 hc         1 N7G       0.038700
     30 H9           5.9670     2.5760     1.6700 hc         1 N7G       0.038700
     31 H10          4.7870     1.0970    -1.5130 h1         1 N7G       0.067700
     32 H11          6.0140    -1.3890    -1.2650 ho         1 N7G       0.429000
     33 H12          2.8920     1.1410    -0.3270 hn         1 N7G       0.311500
     34 H13          1.7790    -1.4690     0.4450 h1         1 N7G       0.072700
     35 H14          1.8300    -0.2210     1.6820 h1         1 N7G       0.072700
     36 H15          0.5450     1.3160     0.1600 hc         1 N7G       0.059700
     37 H16          0.4610     0.0440    -1.0430 hc         1 N7G       0.059700
     38 H17         -1.7120    -0.1600    -1.0350 hn         1 N7G       0.310500
     39 H18         -3.2970    -1.8000     0.2390 h1         1 N7G       0.056200
     40 H19         -3.1930    -0.5660     1.4840 h1         1 N7G       0.056200
     41 H20         -4.0780     1.1340    -0.0980 hc         1 N7G       0.044200
     42 H21         -4.1300    -0.0620    -1.3820 hc         1 N7G       0.044200
     43 H22         -5.7480    -1.4250    -0.0450 hc         1 N7G       0.042200
     44 H23         -5.7130    -0.2190     1.2250 hc         1 N7G       0.042200
     45 H24         -6.5940     1.4960    -0.3730 hc         1 N7G       0.052700
     46 H25         -6.6300     0.2850    -1.6480 hc         1 N7G       0.052700
     47 H26         -8.2270    -1.0870    -0.3000 h1         1 N7G       0.020200
     48 H27         -8.1930     0.1290     0.9760 h1         1 N7G       0.020200
     49 H28        -11.0800     1.0020    -0.9710 h1         1 N7G       0.028367
     50 H29        -10.6060    -0.6690    -0.6180 h1         1 N7G       0.028367
     51 H30        -10.5550     0.5540     0.6620 h1         1 N7G       0.028367
@<TRIPOS>BOND
     1     1     2 1   
     2     1    22 1   
     3     1    23 1   
     4     1    24 1   
     5     2     3 1   
     6     2     4 1   
     7     2     5 1   
     8     3    25 1   
     9     3    26 1   
    10     3    27 1   
    11     4    28 1   
    12     4    29 1   
    13     4    30 1   
    14     5     6 1   
    15     5     7 1   
    16     5    31 1   
    17     6    32 1   
    18     7     8 2   
    19     7     9 1   
    20     9    10 1   
    21     9    33 1   
    22    10    11 1   
    23    10    34 1   
    24    10    35 1   
    25    11    12 1   
    26    11    36 1   
    27    11    37 1   
    28    12    13 2   
    29    12    14 1   
    30    14    15 1   
    31    14    38 1   
    32    15    16 1   
    33    15    39 1   
    34    15    40 1   
    35    16    17 1   
    36    16    41 1   
    37    16    42 1   
    38    17    18 1   
    39    17    43 1   
    40    17    44 1   
    41    18    19 1   
    42    18    45 1   
    43    18    46 1   
    44    19    20 1   
    45    19    47 1   
    46    19    48 1   
    47    20    21 1   
    48    21    49 1   
    49    21    50 1   
    50    21    51 1   
@<TRIPOS>SUBSTRUCTURE
     1 N7G         1 TEMP              0 ****  ****    0 ROOT
