@<TRIPOS>MOLECULE
N7G
   51    50     1     0     0
SMALL
No Charge or Current Charge


@<TRIPOS>ATOM
      1 C06          7.1880     1.8260    -0.5120 c3         1 N7G      -0.087100
      2 C07          6.0400     1.1660     0.3030 c3         1 N7G      -0.068000
      3 C08          6.6160     0.6500     1.6530 c3         1 N7G      -0.087100
      4 C09          4.9790     2.2620     0.6050 c3         1 N7G      -0.087100
      5 C10          5.3890     0.0060    -0.5410 c3         1 N7G       0.104300
      6 O11          6.3730    -1.0160    -0.8430 oh         1 N7G      -0.646000
      7 C12          4.1150    -0.6240     0.1210 c          1 N7G       0.569100
      8 O13          4.1760    -1.5110     0.9650 o          1 N7G      -0.611100
      9 N14          2.9040    -0.1710    -0.3620 ns         1 N7G      -0.501900
     10 C15          1.6020    -0.6370     0.1160 c3         1 N7G       0.110000
     11 C16          0.4740     0.3040    -0.3380 c3         1 N7G      -0.181400
     12 C17         -0.8760    -0.1890     0.1790 c          1 N7G       0.605100
     13 O18         -1.2040    -0.0880     1.3520 o          1 N7G      -0.601100
     14 N19         -1.7060    -0.7290    -0.7770 ns         1 N7G      -0.507900
     15 C20         -3.0600    -1.2280    -0.5250 c3         1 N7G       0.100000
     16 C21         -4.0930    -0.0860    -0.4340 c3         1 N7G      -0.094400
     17 C22         -5.5310    -0.5940    -0.1910 c3         1 N7G      -0.073400
     18 C23         -6.5680     0.5470    -0.1000 c3         1 N7G      -0.080400
     19 C24         -8.0020     0.0370     0.1420 c3         1 N7G       0.159600
     20 O25         -8.8690     1.1800     0.2080 os         1 N7G      -0.455000
     21 C26        -10.2530     0.8650     0.4320 c3         1 N7G       0.147900
     22 H1           7.6200     2.6750     0.0320 hc         1 N7G       0.038700
     23 H2           7.9990     1.1150    -0.7110 hc         1 N7G       0.038700
     24 H3           6.8220     2.1980    -1.4770 hc         1 N7G       0.038700
     25 H4           7.0700     1.4720     2.2200 hc         1 N7G       0.038700
     26 H5           5.8320     0.2120     2.2820 hc         1 N7G       0.038700
     27 H6           7.3910    -0.1090     1.4950 hc         1 N7G       0.038700
     28 H7           4.5240     2.6360    -0.3200 hc         1 N7G       0.038700
     29 H8           4.1770     1.8800     1.2490 hc         1 N7G       0.038700
     30 H9           5.4340     3.1160     1.1220 hc         1 N7G       0.038700
     31 H10          5.0470     0.4480    -1.4870 h1         1 N7G       0.067700
     32 H11          6.3860    -1.6260    -0.0710 ho         1 N7G       0.468000
     33 H12          2.9290     0.5440    -1.0800 hn         1 N7G       0.311500
     34 H13          1.4220    -1.6500    -0.2700 h1         1 N7G       0.072700
     35 H14          1.6190    -0.6870     1.2140 h1         1 N7G       0.072700
     36 H15          0.6670     1.3010     0.0730 hc         1 N7G       0.059700
     37 H16          0.4690     0.3450    -1.4340 hc         1 N7G       0.059700
     38 H17         -1.3480    -0.7620    -1.7250 hn         1 N7G       0.310500
     39 H18         -3.3390    -1.9070    -1.3420 h1         1 N7G       0.056200
     40 H19         -3.0630    -1.8050     0.4090 h1         1 N7G       0.056200
     41 H20         -3.8100     0.5950     0.3790 hc         1 N7G       0.044200
     42 H21         -4.0670     0.4960    -1.3640 hc         1 N7G       0.044200
     43 H22         -5.8150    -1.2750    -1.0040 hc         1 N7G       0.042200
     44 H23         -5.5550    -1.1780     0.7380 hc         1 N7G       0.042200
     45 H24         -6.2880     1.2260     0.7150 hc         1 N7G       0.052700
     46 H25         -6.5490     1.1290    -1.0290 hc         1 N7G       0.052700
     47 H26         -8.2990    -0.6290    -0.6790 h1         1 N7G       0.020200
     48 H27         -8.0370    -0.5310     1.0820 h1         1 N7G       0.020200
     49 H28        -10.8530     1.7830     0.4700 h1         1 N7G       0.028367
     50 H29        -10.6450     0.2340    -0.3770 h1         1 N7G       0.028367
     51 H30        -10.3830     0.3320     1.3830 h1         1 N7G       0.028367
@<TRIPOS>BOND
     1     1     2 1   
     2     1    22 1   
     3     1    23 1   
     4     1    24 1   
     5     2     3 1   
     6     2     4 1   
     7     2     5 1   
     8     3    25 1   
     9     3    26 1   
    10     3    27 1   
    11     4    28 1   
    12     4    29 1   
    13     4    30 1   
    14     5     6 1   
    15     5     7 1   
    16     5    31 1   
    17     6    32 1   
    18     7     8 2   
    19     7     9 1   
    20     9    10 1   
    21     9    33 1   
    22    10    11 1   
    23    10    34 1   
    24    10    35 1   
    25    11    12 1   
    26    11    36 1   
    27    11    37 1   
    28    12    13 2   
    29    12    14 1   
    30    14    15 1   
    31    14    38 1   
    32    15    16 1   
    33    15    39 1   
    34    15    40 1   
    35    16    17 1   
    36    16    41 1   
    37    16    42 1   
    38    17    18 1   
    39    17    43 1   
    40    17    44 1   
    41    18    19 1   
    42    18    45 1   
    43    18    46 1   
    44    19    20 1   
    45    19    47 1   
    46    19    48 1   
    47    20    21 1   
    48    21    49 1   
    49    21    50 1   
    50    21    51 1   
@<TRIPOS>SUBSTRUCTURE
     1 N7G         1 TEMP              0 ****  ****    0 ROOT
