@<TRIPOS>MOLECULE
N7I
   25    25     1     0     0
SMALL
abcg2


@<TRIPOS>ATOM
      1 C1           0.2700    -1.4540    -0.1190 ca         1 N7I      -0.089000
      2 O1           5.1400     0.2040     0.7330 oh         1 N7I      -0.655000
      3 C2          -2.9170     2.4140     0.2020 c3         1 N7I       0.157900
      4 O2          -3.3460    -1.6510     0.1540 oh         1 N7I      -0.533100
      5 C3          -1.0150    -1.9660    -0.0340 ca         1 N7I      -0.127000
      6 O3          -3.0270     1.0040     0.2090 os         1 N7I      -0.369100
      7 C4          -2.1090    -1.1230     0.0760 ca         1 N7I       0.126100
      8 C5          -1.9010     0.2650     0.1000 ca         1 N7I       0.043100
      9 C6          -0.6150     0.7700     0.0150 ca         1 N7I      -0.142000
     10 C7           0.4940    -0.0800    -0.0930 ca         1 N7I      -0.056800
     11 C8           1.8260     0.5240    -0.1690 ce         1 N7I      -0.145200
     12 C9           2.9990    -0.1100    -0.2210 c2         1 N7I      -0.212200
     13 C10          4.3070     0.5980    -0.3410 c3         1 N7I       0.196800
     14 H1           1.0970    -2.1460    -0.2070 ha         1 N7I       0.118000
     15 HO1          6.0350     0.4920     0.5340 ho         1 N7I       0.441000
     16 H2          -3.9280     2.8040     0.2740 h1         1 N7I       0.041367
     17 H2A         -2.3370     2.7790     1.0540 h1         1 N7I       0.041367
     18 H2B         -2.4590     2.7790    -0.7200 h1         1 N7I       0.041367
     19 HO2         -4.0040    -0.9500     0.2230 ho         1 N7I       0.481000
     20 H3          -1.1770    -3.0370    -0.0550 ha         1 N7I       0.131000
     21 H6          -0.4510     1.8400     0.0340 ha         1 N7I       0.115000
     22 H8           1.8360     1.6120    -0.1800 ha         1 N7I       0.166000
     23 H9           3.0480    -1.1950    -0.2040 ha         1 N7I       0.181000
     24 H10          4.1410     1.6830    -0.3530 h1         1 N7I       0.022700
     25 H10A         4.7660     0.3360    -1.3040 h1         1 N7I       0.022700
@<TRIPOS>BOND
     1     1     5 ar  
     2     1    10 ar  
     3     1    14 1   
     4     2    13 1   
     5     2    15 1   
     6     3     6 1   
     7     3    16 1   
     8     3    17 1   
     9     3    18 1   
    10     4     7 1   
    11     4    19 1   
    12     5     7 ar  
    13     5    20 1   
    14     6     8 1   
    15     7     8 ar  
    16     8     9 ar  
    17     9    10 ar  
    18     9    21 1   
    19    10    11 1   
    20    11    12 2   
    21    11    22 1   
    22    12    13 1   
    23    12    23 1   
    24    13    24 1   
    25    13    25 1   
@<TRIPOS>SUBSTRUCTURE
     1 N7I         1 TEMP              0 ****  ****    0 ROOT
