@<TRIPOS>MOLECULE
N7I
   25    25     1     0     0
SMALL
No Charge or Current Charge


@<TRIPOS>ATOM
      1 C1           0.2950    -1.4860    -0.0590 ca         1 N7I      -0.089000
      2 O1           4.9850     0.4020     0.8320 oh         1 N7I      -0.655000
      3 C2          -2.9770     2.4750     0.2220 c3         1 N7I       0.157900
      4 O2          -3.3740    -1.6820     0.1030 oh         1 N7I      -0.533100
      5 C3          -1.0050    -2.0180    -0.0160 ca         1 N7I      -0.127000
      6 O3          -3.0570     1.0370     0.1780 os         1 N7I      -0.369100
      7 C4          -2.1130    -1.1620     0.0610 ca         1 N7I       0.126100
      8 C5          -1.9310     0.2350     0.0990 ca         1 N7I       0.043100
      9 C6          -0.6220     0.7660     0.0570 ca         1 N7I      -0.142000
     10 C7           0.4970    -0.0890    -0.0270 ca         1 N7I      -0.056800
     11 C8           1.8630     0.5130    -0.0670 ce         1 N7I      -0.145200
     12 C9           3.0070    -0.1230    -0.4110 c2         1 N7I      -0.212200
     13 C10          4.3790     0.5060    -0.4560 c3         1 N7I       0.196800
     14 H1           1.1370    -2.1710    -0.1060 ha         1 N7I       0.118000
     15 HO1          5.8690     0.8260     0.7620 ho         1 N7I       0.441000
     16 H2          -3.9820     2.9100     0.2840 h1         1 N7I       0.041367
     17 H2A         -2.4090     2.8070     1.1010 h1         1 N7I       0.041367
     18 H2B         -2.4910     2.8660    -0.6810 h1         1 N7I       0.041367
     19 HO2         -3.9870    -0.9140     0.1560 ho         1 N7I       0.481000
     20 H3          -1.1530    -3.0950    -0.0400 ha         1 N7I       0.131000
     21 H6          -0.4570     1.8390     0.0840 ha         1 N7I       0.115000
     22 H8           1.9030     1.5710     0.2010 ha         1 N7I       0.166000
     23 H9           3.0100    -1.1720    -0.7020 ha         1 N7I       0.181000
     24 H10          4.2930     1.5590    -0.7550 h1         1 N7I       0.022700
     25 H10A         4.9930    -0.0060    -1.2090 h1         1 N7I       0.022700
@<TRIPOS>BOND
     1     1     5 ar  
     2     1    10 ar  
     3     1    14 1   
     4     2    13 1   
     5     2    15 1   
     6     3     6 1   
     7     3    16 1   
     8     3    17 1   
     9     3    18 1   
    10     4     7 1   
    11     4    19 1   
    12     5     7 ar  
    13     5    20 1   
    14     6     8 1   
    15     7     8 ar  
    16     8     9 ar  
    17     9    10 ar  
    18     9    21 1   
    19    10    11 1   
    20    11    12 2   
    21    11    22 1   
    22    12    13 1   
    23    12    23 1   
    24    13    24 1   
    25    13    25 1   
@<TRIPOS>SUBSTRUCTURE
     1 N7I         1 TEMP              0 ****  ****    0 ROOT
