@<TRIPOS>MOLECULE
N7J
   22    23     1     0     0
SMALL
No Charge or Current Charge


@<TRIPOS>ATOM
      1 CAA         -3.8380     3.1530    15.7440 ca         1 N7J      -0.014000
      2 CAB         -3.5340     4.3040    15.0080 ca         1 N7J      -0.048200
      3 NAK         -2.3250     4.7880    14.5900 na         1 N7J      -0.386600
      4 CAL         -2.6250     5.9470    13.9100 cc         1 N7J       0.660100
      5 NAN         -1.6870     6.6800    13.3670 n2         1 N7J      -0.433700
      6 OAO         -2.0990     7.8550    12.6880 oh         1 N7J      -0.486000
      7 OAM         -3.9820     6.2390    13.8670 os         1 N7J      -0.288700
      8 CAC         -4.5030     5.1770    14.5700 ca         1 N7J       0.100100
      9 CAD         -5.8570     4.9540    14.8410 ca         1 N7J      -0.102000
     10 CAE         -6.2070     3.8030    15.5820 ca         1 N7J      -0.023000
     11 CAF         -5.2020     2.9030    16.0340 ca         1 N7J      -0.262500
     12 SAG         -5.6550     1.4410    16.9750 sy         1 N7J       1.127600
     13 OAH         -7.0160     1.5760    17.4870 o          1 N7J      -0.541000
     14 OAI         -4.5330     0.9960    17.8030 o          1 N7J      -0.541000
     15 NAJ         -5.7900     0.3120    15.7990 n8         1 N7J      -1.002100
     16 H1          -3.0490     2.4800    16.0770 ha         1 N7J       0.149000
     17 H3          -1.2700     8.2740    12.3480 ho         1 N7J       0.466000
     18 H4          -6.6160     5.6490    14.4920 ha         1 N7J       0.145000
     19 H5          -7.2570     3.6170    15.8040 ha         1 N7J       0.146000
     20 H6          -6.7050    -0.0800    16.0120 hn         1 N7J       0.474500
     21 H7          -5.9560     0.8790    14.9710 hn         1 N7J       0.474500
     22 H8          -1.4020     4.4060    14.7330 hn         1 N7J       0.386000
@<TRIPOS>BOND
     1     1     2 ar  
     2     1    11 ar  
     3     1    16 1   
     4     2     3 1   
     5     2     8 ar  
     6     3     4 1   
     7     3    22 1   
     8     4     5 2   
     9     4     7 1   
    10     5     6 1   
    11     6    17 1   
    12     7     8 1   
    13     8     9 ar  
    14     9    10 ar  
    15     9    18 1   
    16    10    11 ar  
    17    10    19 1   
    18    11    12 1   
    19    12    13 2   
    20    12    14 2   
    21    12    15 1   
    22    15    20 1   
    23    15    21 1   
@<TRIPOS>SUBSTRUCTURE
     1 N7J         1 TEMP              0 ****  ****    0 ROOT
