@<TRIPOS>MOLECULE
N7J
   22    23     1     0     0
SMALL
abcg2


@<TRIPOS>ATOM
      1 CAA         -3.8980     3.1310    15.7020 ca         1 N7J      -0.014000
      2 CAB         -3.5300     4.2530    14.9960 ca         1 N7J      -0.048200
      3 NAK         -2.3230     4.7300    14.5520 na         1 N7J      -0.386600
      4 CAL         -2.5260     5.9190    13.9030 cc         1 N7J       0.660100
      5 NAN         -1.6270     6.6370    13.3750 n2         1 N7J      -0.433700
      6 OAO         -2.1580     7.7770    12.7940 oh         1 N7J      -0.486000
      7 OAM         -3.8580     6.1960    13.9220 os         1 N7J      -0.288700
      8 CAC         -4.4810     5.1870    14.5890 ca         1 N7J       0.100100
      9 CAD         -5.8180     5.0610    14.8550 ca         1 N7J      -0.102000
     10 CAE         -6.2090     3.9280    15.5720 ca         1 N7J      -0.023000
     11 CAF         -5.2630     2.9990    15.9750 ca         1 N7J      -0.262500
     12 SAG         -5.7910     1.5730    16.8780 sy         1 N7J       1.127600
     13 OAH         -7.1410     1.8250    17.3630 o          1 N7J      -0.541000
     14 OAI         -4.7680     1.2020    17.8460 o          1 N7J      -0.541000
     15 NAJ         -5.7360     0.4140    15.7020 n8         1 N7J      -1.002100
     16 H1          -3.1710     2.4000    16.0270 ha         1 N7J       0.149000
     17 H3          -1.3790     8.2420    12.4740 ho         1 N7J       0.466000
     18 H4          -6.5400     5.7990    14.5350 ha         1 N7J       0.145000
     19 H5          -7.2540     3.7910    15.8090 ha         1 N7J       0.146000
     20 H6          -5.7210    -0.5190    16.1030 hn         1 N7J       0.474500
     21 H7          -6.4980     0.4970    15.0370 hn         1 N7J       0.474500
     22 H8          -1.4180     4.3120    14.6940 hn         1 N7J       0.386000
@<TRIPOS>BOND
     1     1     2 ar  
     2     1    11 ar  
     3     1    16 1   
     4     2     3 1   
     5     2     8 ar  
     6     3     4 1   
     7     3    22 1   
     8     4     5 2   
     9     4     7 1   
    10     5     6 1   
    11     6    17 1   
    12     7     8 1   
    13     8     9 ar  
    14     9    10 ar  
    15     9    18 1   
    16    10    11 ar  
    17    10    19 1   
    18    11    12 1   
    19    12    13 2   
    20    12    14 2   
    21    12    15 1   
    22    15    20 1   
    23    15    21 1   
@<TRIPOS>SUBSTRUCTURE
     1 N7J         1 TEMP              0 ****  ****    0 ROOT
