@<TRIPOS>MOLECULE
N7K
   62    67     1     0     0
SMALL
No Charge or Current Charge


@<TRIPOS>ATOM
      1 C4         -41.9850    12.4540    -0.5470 ca         1 N7K       0.144500
      2 C5         -43.0040    11.5390    -0.6940 ca         1 N7K      -0.243800
      3 C6         -42.7130    10.1680    -0.5530 ca         1 N7K       0.437900
      4 N1         -41.4700     9.7780    -0.2150 nb         1 N7K      -0.290000
      5 N3         -40.7410    12.0820    -0.2020 nb         1 N7K      -0.227000
      6 C2         -40.5520    10.7540    -0.0320 ca         1 N7K       0.180900
      7 CAL        -43.8290    13.6300    -1.2740 cc         1 N7K      -0.161100
      8 CAM        -44.1870    12.3050    -1.0830 cd         1 N7K      -0.061400
      9 CAN        -45.5340    11.7700    -1.3790 ca         1 N7K       0.008200
     10 CAO        -46.3080    12.3470    -2.4070 ca         1 N7K      -0.167000
     11 CAP        -47.6000    11.8760    -2.7080 ca         1 N7K      -0.011000
     12 CAQ        -48.1350    10.8150    -1.9460 ca         1 N7K      -0.135000
     13 CAR        -47.3930    10.2630    -0.8900 ca         1 N7K      -0.084000
     14 CAS        -46.1080    10.7460    -0.6010 ca         1 N7K      -0.150000
     15 CAT        -49.5700    12.3310    -4.2990 c          1 N7K       0.606100
     16 CAU        -45.6000     2.2460    -3.3150 ca         1 N7K      -0.088500
     17 CAV        -44.4930     2.4680    -2.4710 ca         1 N7K      -0.121300
     18 CAW        -43.2010     2.5340    -3.0330 ca         1 N7K      -0.088500
     19 CAX        -43.0220     2.3900    -4.4200 ca         1 N7K      -0.112500
     20 CAY        -44.1300     2.1750    -5.2550 ca         1 N7K      -0.099000
     21 CAZ        -45.4190     2.1020    -4.7010 ca         1 N7K      -0.112500
     22 CBA        -44.7040     2.6260    -0.9640 c3         1 N7K       0.142900
     23 CBB        -43.9810     5.0200    -0.6340 ca         1 N7K      -0.058200
     24 CBC        -43.0610     5.6540     0.1370 ca         1 N7K      -0.206900
     25 CBD        -42.4130     4.6200     0.9080 cc         1 N7K       0.353800
     26 CBE        -44.8180     5.7160    -1.5140 ca         1 N7K      -0.096000
     27 CBF        -44.6700     7.1200    -1.5790 ca         1 N7K      -0.123000
     28 CBG        -43.7040     7.7930    -0.7870 ca         1 N7K       0.264000
     29 CBH        -42.8880     7.0460     0.1000 ca         1 N7K      -0.059000
     30 CBI        -49.8930    13.2450    -5.4910 c3         1 N7K      -0.159400
     31 CBJ        -49.9310    12.4610    -6.8220 c3         1 N7K      -0.077100
     32 NAC        -42.4790    13.7020    -0.8790 na         1 N7K      -0.309400
     33 NAD        -48.2920    12.5010    -3.7810 ns         1 N7K      -0.152000
     34 NAE        -43.8770     3.6760    -0.3370 na         1 N7K       0.076600
     35 NAF        -42.9050     3.4020     0.6270 nd         1 N7K      -0.522100
     36 NAG        -43.6320     9.1880    -0.8980 nu         1 N7K      -0.925900
     37 OBK        -50.4030    11.5520    -3.8490 o          1 N7K      -0.574100
     38 H1         -39.5490    10.4350     0.2480 h5         1 N7K       0.046100
     39 H2         -44.4080    14.4910    -1.5980 h4         1 N7K       0.220000
     40 H3         -45.8900    13.1570    -3.0000 ha         1 N7K       0.111000
     41 H4         -49.1250    10.4150    -2.1430 ha         1 N7K       0.150000
     42 H5         -47.8230     9.4680    -0.2830 ha         1 N7K       0.118000
     43 H6         -45.5810    10.3520     0.2640 ha         1 N7K       0.126000
     44 H8         -42.3320     2.6960    -2.3980 ha         1 N7K       0.117000
     45 H9         -42.0230     2.4440    -4.8470 ha         1 N7K       0.114500
     46 H10        -43.9910     2.0630    -6.3280 ha         1 N7K       0.113000
     47 H11        -46.2790     1.9340    -5.3470 ha         1 N7K       0.114500
     48 H12        -45.7560     2.8620    -0.7610 h1         1 N7K       0.070200
     49 H13        -44.4840     1.6690    -0.4740 h1         1 N7K       0.070200
     50 H14        -41.6250     4.6800     1.6470 h4         1 N7K       0.050800
     51 H15        -45.5560     5.2010    -2.1260 ha         1 N7K       0.121000
     52 H16        -45.3070     7.6870    -2.2520 ha         1 N7K       0.112000
     53 H17        -42.1620     7.5230     0.7480 ha         1 N7K       0.158000
     54 H18        -49.1360    14.0340    -5.5790 hc         1 N7K       0.057200
     55 H19        -50.8800    13.6960    -5.3310 hc         1 N7K       0.057200
     56 H20        -50.1650    13.1330    -7.6560 hc         1 N7K       0.045033
     57 H21        -48.9600    11.9900    -7.0230 hc         1 N7K       0.045033
     58 H22        -50.6960    11.6760    -6.7910 hc         1 N7K       0.045033
     59 H23        -41.9190    14.5490    -0.8640 hn         1 N7K       0.365000
     60 H24        -47.7440    13.2020    -4.2630 hn         1 N7K       0.148000
     61 H25        -44.4440     9.6010    -1.3520 hn         1 N7K       0.508000
     62 H7         -46.6040     2.1870    -2.8980 ha         1 N7K       0.117000
@<TRIPOS>BOND
     1     1     2 ar  
     2     1     5 ar  
     3     1    32 1   
     4     2     3 ar  
     5     2     8 1   
     6     3     4 ar  
     7     3    36 1   
     8     4     6 ar  
     9     5     6 ar  
    10     6    38 1   
    11     7     8 2   
    12     7    32 1   
    13     7    39 1   
    14     8     9 1   
    15     9    10 ar  
    16     9    14 ar  
    17    10    11 ar  
    18    10    40 1   
    19    11    12 ar  
    20    11    33 1   
    21    12    13 ar  
    22    12    41 1   
    23    13    14 ar  
    24    13    42 1   
    25    14    43 1   
    26    15    30 1   
    27    15    33 1   
    28    15    37 2   
    29    16    17 ar  
    30    16    21 ar  
    31    16    62 1   
    32    17    18 ar  
    33    17    22 1   
    34    18    19 ar  
    35    18    44 1   
    36    19    20 ar  
    37    19    45 1   
    38    20    21 ar  
    39    20    46 1   
    40    21    47 1   
    41    22    34 1   
    42    22    48 1   
    43    22    49 1   
    44    23    24 ar  
    45    23    26 ar  
    46    23    34 1   
    47    24    25 1   
    48    24    29 ar  
    49    25    35 2   
    50    25    50 1   
    51    26    27 ar  
    52    26    51 1   
    53    27    28 ar  
    54    27    52 1   
    55    28    29 ar  
    56    28    36 1   
    57    29    53 1   
    58    30    31 1   
    59    30    54 1   
    60    30    55 1   
    61    31    56 1   
    62    31    57 1   
    63    31    58 1   
    64    32    59 1   
    65    33    60 1   
    66    34    35 1   
    67    36    61 1   
@<TRIPOS>SUBSTRUCTURE
     1 N7K         1 TEMP              0 ****  ****    0 ROOT
