@<TRIPOS>MOLECULE
N7K
   62    67     1     0     0
SMALL
abcg2


@<TRIPOS>ATOM
      1 C4         -42.1560    12.4030    -0.3040 ca         1 N7K       0.144500
      2 C5         -43.1930    11.5050    -0.5910 ca         1 N7K      -0.243800
      3 C6         -42.8480    10.1400    -0.4580 ca         1 N7K       0.437900
      4 N1         -41.6420     9.8140    -0.0080 nb         1 N7K      -0.290000
      5 N3         -40.9350    12.0810     0.1290 nb         1 N7K      -0.227000
      6 C2         -40.7690    10.7840     0.2640 ca         1 N7K       0.180900
      7 CAL        -43.9060    13.5890    -0.9740 cc         1 N7K      -0.161100
      8 CAM        -44.3220    12.2850    -1.0140 cd         1 N7K      -0.061400
      9 CAN        -45.6710    11.8360    -1.3790 ca         1 N7K       0.008200
     10 CAO        -46.2760    12.3090    -2.5370 ca         1 N7K      -0.167000
     11 CAP        -47.5680    11.9170    -2.8990 ca         1 N7K      -0.011000
     12 CAQ        -48.2560    11.0110    -2.0880 ca         1 N7K      -0.135000
     13 CAR        -47.6480    10.5420    -0.9320 ca         1 N7K      -0.084000
     14 CAS        -46.3770    10.9470    -0.5630 ca         1 N7K      -0.150000
     15 CAT        -49.2850    12.2760    -4.6740 c          1 N7K       0.606100
     16 CAU        -45.4020     2.6330    -3.2820 ca         1 N7K      -0.088500
     17 CAV        -44.3490     2.3640    -2.4160 ca         1 N7K      -0.121300
     18 CAW        -43.1470     1.8890    -2.9370 ca         1 N7K      -0.088500
     19 CAX        -43.0020     1.6920    -4.3020 ca         1 N7K      -0.112500
     20 CAY        -44.0600     1.9660    -5.1630 ca         1 N7K      -0.099000
     21 CAZ        -45.2610     2.4350    -4.6510 ca         1 N7K      -0.112500
     22 CBA        -44.4920     2.6010    -0.9340 c3         1 N7K       0.142900
     23 CBB        -43.8580     5.0150    -0.6550 ca         1 N7K      -0.058200
     24 CBC        -42.7140     5.6650    -0.1720 ca         1 N7K      -0.206900
     25 CBD        -41.8790     4.6040     0.2660 cc         1 N7K       0.353800
     26 CBE        -44.9320     5.7370    -1.1860 ca         1 N7K      -0.096000
     27 CBF        -44.8150     7.1030    -1.2040 ca         1 N7K      -0.123000
     28 CBG        -43.6660     7.7830    -0.7160 ca         1 N7K       0.264000
     29 CBH        -42.6060     7.0640    -0.1960 ca         1 N7K      -0.059000
     30 CBI        -49.4880    13.1330    -5.9050 c3         1 N7K      -0.159400
     31 CBJ        -50.6740    12.7070    -6.7500 c3         1 N7K      -0.077100
     32 NAC        -42.6100    13.6530    -0.5470 na         1 N7K      -0.309400
     33 NAD        -48.0780    12.4680    -4.0750 ns         1 N7K      -0.152000
     34 NAE        -43.6560     3.6850    -0.4730 na         1 N7K       0.076600
     35 NAF        -42.4580     3.4450     0.0680 nd         1 N7K      -0.522100
     36 NAG        -43.7330     9.1760    -0.8040 nu         1 N7K      -0.925900
     37 OBK        -50.1320    11.5070    -4.2580 o          1 N7K      -0.574100
     38 H1         -39.8030    10.4540     0.6310 h5         1 N7K       0.046100
     39 H2         -44.4600    14.4870    -1.1960 h4         1 N7K       0.220000
     40 H3         -45.7260    12.9860    -3.1810 ha         1 N7K       0.111000
     41 H4         -49.2470    10.6760    -2.3410 ha         1 N7K       0.150000
     42 H5         -48.1930     9.8520    -0.3000 ha         1 N7K       0.118000
     43 H6         -45.9470    10.6030     0.3700 ha         1 N7K       0.126000
     44 H8         -42.3200     1.6750    -2.2710 ha         1 N7K       0.117000
     45 H9         -42.0650     1.3210    -4.6960 ha         1 N7K       0.114500
     46 H10        -43.9460     1.8120    -6.2280 ha         1 N7K       0.113000
     47 H11        -46.0880     2.6500    -5.3150 ha         1 N7K       0.114500
     48 H12        -45.5290     2.8250    -0.6800 h1         1 N7K       0.070200
     49 H13        -44.2030     1.7170    -0.3660 h1         1 N7K       0.070200
     50 H14        -40.8990     4.6590     0.7150 h4         1 N7K       0.050800
     51 H15        -45.8220     5.2600    -1.5700 ha         1 N7K       0.121000
     52 H16        -45.6360     7.6850    -1.6090 ha         1 N7K       0.112000
     53 H17        -41.7260     7.5570     0.1800 ha         1 N7K       0.158000
     54 H18        -48.5720    13.1320    -6.5030 hc         1 N7K       0.057200
     55 H19        -49.6180    14.1670    -5.5670 hc         1 N7K       0.057200
     56 H20        -50.7820    13.3780    -7.6020 hc         1 N7K       0.045033
     57 H21        -50.5490    11.6960    -7.1380 hc         1 N7K       0.045033
     58 H22        -51.6040    12.7380    -6.1850 hc         1 N7K       0.045033
     59 H23        -42.0840    14.5010    -0.4060 hn         1 N7K       0.365000
     60 H24        -47.4620    13.1230    -4.5350 hn         1 N7K       0.148000
     61 H25        -44.5980     9.5190    -1.1940 hn         1 N7K       0.508000
     62 H7         -46.3430     3.0000    -2.8870 ha         1 N7K       0.117000
@<TRIPOS>BOND
     1     1     2 ar  
     2     1     5 ar  
     3     1    32 1   
     4     2     3 ar  
     5     2     8 1   
     6     3     4 ar  
     7     3    36 1   
     8     4     6 ar  
     9     5     6 ar  
    10     6    38 1   
    11     7     8 2   
    12     7    32 1   
    13     7    39 1   
    14     8     9 1   
    15     9    10 ar  
    16     9    14 ar  
    17    10    11 ar  
    18    10    40 1   
    19    11    12 ar  
    20    11    33 1   
    21    12    13 ar  
    22    12    41 1   
    23    13    14 ar  
    24    13    42 1   
    25    14    43 1   
    26    15    30 1   
    27    15    33 1   
    28    15    37 2   
    29    16    17 ar  
    30    16    21 ar  
    31    16    62 1   
    32    17    18 ar  
    33    17    22 1   
    34    18    19 ar  
    35    18    44 1   
    36    19    20 ar  
    37    19    45 1   
    38    20    21 ar  
    39    20    46 1   
    40    21    47 1   
    41    22    34 1   
    42    22    48 1   
    43    22    49 1   
    44    23    24 ar  
    45    23    26 ar  
    46    23    34 1   
    47    24    25 1   
    48    24    29 ar  
    49    25    35 2   
    50    25    50 1   
    51    26    27 ar  
    52    26    51 1   
    53    27    28 ar  
    54    27    52 1   
    55    28    29 ar  
    56    28    36 1   
    57    29    53 1   
    58    30    31 1   
    59    30    54 1   
    60    30    55 1   
    61    31    56 1   
    62    31    57 1   
    63    31    58 1   
    64    32    59 1   
    65    33    60 1   
    66    34    35 1   
    67    36    61 1   
@<TRIPOS>SUBSTRUCTURE
     1 N7K         1 TEMP              0 ****  ****    0 ROOT
