@<TRIPOS>MOLECULE
N7L
   28    29     1     0     0
SMALL
abcg2


@<TRIPOS>ATOM
      1 N1           9.0210    -0.2080    20.7180 ns         1 N7L      -0.147000
      2 C4           8.3320     0.9310    18.6610 ca         1 N7L       0.332900
      3 C5           8.0270     0.3450    19.8920 ca         1 N7L      -0.079000
      4 C6          10.3150     0.2090    20.8570 c          1 N7L       0.637100
      5 C7          11.1010    -0.5790    21.8440 cx         1 N7L      -0.230700
      6 C8          12.1540     0.1450    22.6530 cx         1 N7L      -0.087400
      7 F           12.9450    -3.0520    20.9210 f          1 N7L      -0.272000
      8 C9          12.5780    -0.7850    21.5660 cx         1 N7L      -0.125700
      9 O           10.7930     1.1510    20.2310 o          1 N7L      -0.584100
     10 C1           6.6860     0.2740    20.2990 ca         1 N7L      -0.084300
     11 C            6.2910    -0.3430    21.6080 c3         1 N7L      -0.051800
     12 N            7.4090     1.4440    17.8460 nb         1 N7L      -0.646000
     13 C3           6.1320     1.3810    18.2330 ca         1 N7L       0.315900
     14 C2           5.7370     0.8070    19.4330 ca         1 N7L      -0.144000
     15 H1           8.7220    -0.9370    21.3490 hn         1 N7L       0.153000
     16 H2           9.3600     0.9820    18.3330 h4         1 N7L       0.046100
     17 H3          10.5840    -1.3930    22.3340 hc         1 N7L       0.088700
     18 H4          12.2660     1.2040    22.4700 hc         1 N7L       0.087700
     19 H5          12.2760    -0.1720    23.6800 hc         1 N7L       0.087700
     20 H6          12.8030    -2.4860    22.8600 h1         1 N7L       0.050700
     21 H7          14.2900    -2.0030    21.9990 h1         1 N7L       0.050700
     22 H8          12.9460    -0.3230    20.6580 hc         1 N7L       0.115700
     23 H9           6.5210    -1.4120    21.6300 hc         1 N7L       0.046033
     24 H10          6.8310     0.1200    22.4380 hc         1 N7L       0.046033
     25 H11          5.2230    -0.2260    21.7800 hc         1 N7L       0.046033
     26 H12          5.3960     1.8000    17.5570 h4         1 N7L       0.022100
     27 H13          4.6880     0.7800    19.7010 ha         1 N7L       0.121000
     28 C10         13.2050    -2.0880    21.9270 c3         1 N7L       0.206600
@<TRIPOS>BOND
     1     1     3 1   
     2     1     4 1   
     3     1    15 1   
     4     2     3 ar  
     5     2    12 ar  
     6     2    16 1   
     7     3    10 ar  
     8     4     5 1   
     9     4     9 2   
    10     5     6 1   
    11     5     8 1   
    12     5    17 1   
    13     6     8 1   
    14     6    18 1   
    15     6    19 1   
    16     7    28 1   
    17     8    22 1   
    18     8    28 1   
    19    10    11 1   
    20    10    14 ar  
    21    11    23 1   
    22    11    24 1   
    23    11    25 1   
    24    12    13 ar  
    25    13    14 ar  
    26    13    26 1   
    27    14    27 1   
    28    20    28 1   
    29    21    28 1   
@<TRIPOS>SUBSTRUCTURE
     1 N7L         1 TEMP              0 ****  ****    0 ROOT
