@<TRIPOS>MOLECULE
N7L
   28    29     1     0     0
SMALL
No Charge or Current Charge


@<TRIPOS>ATOM
      1 N1           9.0770    -0.2640    20.5350 ns         1 N7L      -0.147000
      2 C4           8.2140     0.8250    18.4540 ca         1 N7L       0.332900
      3 C5           8.0370     0.3600    19.7840 ca         1 N7L      -0.079000
      4 C6          10.4070    -0.5280    20.2430 c          1 N7L       0.637100
      5 C7          11.1420    -1.2250    21.3660 cx         1 N7L      -0.230700
      6 C8          11.3110    -0.5020    22.6900 cx         1 N7L      -0.087400
      7 F           14.2770    -2.0920    21.0680 f          1 N7L      -0.272000
      8 C9          12.5070    -0.7080    21.7880 cx         1 N7L      -0.125700
      9 O           10.9590    -0.2430    19.1880 o          1 N7L      -0.584100
     10 C1           6.7680     0.5250    20.3840 ca         1 N7L      -0.084300
     11 C            6.4850     0.0570    21.8090 c3         1 N7L      -0.051800
     12 N            7.2310     1.4180    17.7340 nb         1 N7L      -0.646000
     13 C3           6.0240     1.5710    18.3200 ca         1 N7L       0.315900
     14 C2           5.7540     1.1420    19.6290 ca         1 N7L      -0.144000
     15 H1           8.7930    -0.5700    21.4560 hn         1 N7L       0.153000
     16 H2           9.1620     0.7260    17.9330 h4         1 N7L       0.046100
     17 H3          10.9860    -2.3000    21.4100 hc         1 N7L       0.088700
     18 H4          10.9200     0.5100    22.7830 hc         1 N7L       0.087700
     19 H5          11.2480    -1.0930    23.6020 hc         1 N7L       0.087700
     20 H6          13.2230    -2.5400    22.7060 h1         1 N7L       0.050700
     21 H7          14.3460    -1.1590    22.8340 h1         1 N7L       0.050700
     22 H8          12.8880     0.1730    21.2740 hc         1 N7L       0.115700
     23 H9           6.6340    -1.0250    21.9050 hc         1 N7L       0.046033
     24 H10          7.1470     0.5560    22.5270 hc         1 N7L       0.046033
     25 H11          5.4530     0.2740    22.1100 hc         1 N7L       0.046033
     26 H12          5.2500     2.0500    17.7220 h4         1 N7L       0.022100
     27 H13          4.7610     1.2930    20.0450 ha         1 N7L       0.121000
     28 C10         13.6270    -1.6660    22.1780 c3         1 N7L       0.206600
@<TRIPOS>BOND
     1     1     3 1   
     2     1     4 1   
     3     1    15 1   
     4     2     3 ar  
     5     2    12 ar  
     6     2    16 1   
     7     3    10 ar  
     8     4     5 1   
     9     4     9 2   
    10     5     6 1   
    11     5     8 1   
    12     5    17 1   
    13     6     8 1   
    14     6    18 1   
    15     6    19 1   
    16     7    28 1   
    17     8    22 1   
    18     8    28 1   
    19    10    11 1   
    20    10    14 ar  
    21    11    23 1   
    22    11    24 1   
    23    11    25 1   
    24    12    13 ar  
    25    13    14 ar  
    26    13    26 1   
    27    14    27 1   
    28    20    28 1   
    29    21    28 1   
@<TRIPOS>SUBSTRUCTURE
     1 N7L         1 TEMP              0 ****  ****    0 ROOT
