@<TRIPOS>MOLECULE
N7M
   30    30     1     0     0
SMALL
bcc


@<TRIPOS>ATOM
      1 CAB         -3.5380     3.7670    14.6460 ca         1 N7M      -0.210500
      2 CAA         -3.9440     2.6570    15.3540 ca         1 N7M       0.009500
      3 CAF         -5.2660     2.5590    15.7770 ca         1 N7M      -0.314500
      4 SAG         -5.7790     1.1390    16.6840 sy         1 N7M       1.276200
      5 OAH         -4.7260     0.7350    17.6050 o          1 N7M      -0.615800
      6 OAI         -7.1010     1.4110    17.2320 o          1 N7M      -0.615800
      7 NAJ         -5.7970    -0.0120    15.4980 n8         1 N7M      -0.893700
      8 CAE         -6.1650     3.5800    15.5120 ca         1 N7M       0.009500
      9 CAD         -5.7520     4.7020    14.8140 ca         1 N7M      -0.210500
     10 CAC         -4.4360     4.8020    14.3550 ca         1 N7M       0.141600
     11 NAK         -3.9510     5.9090    13.6770 ns         1 N7M      -0.504100
     12 CAL         -4.5830     6.8000    12.8270 c          1 N7M       0.793100
     13 OAP         -4.0220     7.8400    12.5180 o          1 N7M      -0.611100
     14 NAM         -5.8060     6.4490    12.3790 ns         1 N7M      -0.579900
     15 CAN         -6.5540     7.2810    11.4640 c3         1 N7M       0.104000
     16 CAO         -6.1620     7.0380    10.0140 c3         1 N7M       0.110400
     17 OAQ         -6.9720     7.8630     9.2080 oh         1 N7M      -0.594800
     18 H1          -2.5120     3.8370    14.3060 ha         1 N7M       0.146000
     19 H2          -3.2310     1.8700    15.5620 ha         1 N7M       0.157500
     20 H3          -5.7990    -0.9490    15.8890 hn         1 N7M       0.416800
     21 H4          -6.5750     0.1010    14.8560 hn         1 N7M       0.416800
     22 H5          -7.1870     3.5240    15.8600 ha         1 N7M       0.157500
     23 H6          -6.4590     5.5050    14.6630 ha         1 N7M       0.146000
     24 H7          -2.9580     6.0750    13.7560 hn         1 N7M       0.340500
     25 H8          -6.1120     5.4940    12.4740 hn         1 N7M       0.319500
     26 H9          -6.4060     8.3280    11.7260 h1         1 N7M       0.072700
     27 H10         -7.6120     7.0570    11.6030 h1         1 N7M       0.072700
     28 H11         -6.3020     5.9750     9.7790 h1         1 N7M       0.025700
     29 H12         -5.0960     7.2610     9.8850 h1         1 N7M       0.025700
     30 H13         -6.7470     7.7000     8.2880 ho         1 N7M       0.410000
@<TRIPOS>BOND
     1     1     2 ar  
     2     1    10 ar  
     3     1    18 1   
     4     2     3 ar  
     5     2    19 1   
     6     3     4 1   
     7     3     8 ar  
     8     4     5 2   
     9     4     6 2   
    10     4     7 1   
    11     7    20 1   
    12     7    21 1   
    13     8     9 ar  
    14     8    22 1   
    15     9    10 ar  
    16     9    23 1   
    17    10    11 1   
    18    11    12 1   
    19    11    24 1   
    20    12    13 2   
    21    12    14 1   
    22    14    15 1   
    23    14    25 1   
    24    15    16 1   
    25    15    26 1   
    26    15    27 1   
    27    16    17 1   
    28    16    28 1   
    29    16    29 1   
    30    17    30 1   
@<TRIPOS>SUBSTRUCTURE
     1 N7M         1 TEMP              0 ****  ****    0 ROOT
