@<TRIPOS>MOLECULE
N7M
   30    30     1     0     0
SMALL
No Charge or Current Charge


@<TRIPOS>ATOM
      1 CAB         -3.4540     3.8070    14.6470 ca         1 N7M      -0.192500
      2 CAA         -3.8310     2.6380    15.3290 ca         1 N7M       0.027500
      3 CAF         -5.1500     2.4980    15.8030 ca         1 N7M      -0.314500
      4 SAG         -5.6290     1.0100    16.6770 sy         1 N7M       1.134600
      5 OAH         -4.4620     0.3730    17.2880 o          1 N7M      -0.545000
      6 OAI         -6.8830     1.2310    17.3920 o          1 N7M      -0.545000
      7 NAJ         -6.0520     0.0300    15.4400 n8         1 N7M      -1.004100
      8 CAE         -6.0820     3.5350    15.6010 ca         1 N7M       0.027500
      9 CAD         -5.6960     4.7000    14.9160 ca         1 N7M      -0.192500
     10 CAC         -4.3830     4.8360    14.4180 ca         1 N7M       0.049000
     11 NAK         -3.9500     6.0010    13.7400 ns         1 N7M      -0.178000
     12 CAL         -4.6020     6.8380    12.8540 c          1 N7M       0.659100
     13 OAP         -4.1130     7.8920    12.4760 o          1 N7M      -0.611100
     14 NAM         -5.8210     6.3870    12.4030 ns         1 N7M      -0.512900
     15 CAN         -6.6720     7.0920    11.4340 c3         1 N7M       0.104000
     16 CAO         -6.1320     7.0080     9.9870 c3         1 N7M       0.133600
     17 OAQ         -7.0250     7.6750     9.0830 oh         1 N7M      -0.657000
     18 H1          -2.4330     3.9070    14.2850 ha         1 N7M       0.128000
     19 H2          -3.0970     1.8480    15.4850 ha         1 N7M       0.139500
     20 H3          -6.9850    -0.2530    15.7310 hn         1 N7M       0.472000
     21 H4          -6.2210     0.6940    14.6890 hn         1 N7M       0.472000
     22 H5          -7.1000     3.4520    15.9800 ha         1 N7M       0.139500
     23 H6          -6.4190     5.5040    14.8050 ha         1 N7M       0.128000
     24 H7          -3.0110     6.2950    13.9730 hn         1 N7M       0.174000
     25 H8          -6.1200     5.4820    12.7450 hn         1 N7M       0.319500
     26 H9          -6.7530     8.1460    11.7310 h1         1 N7M       0.072700
     27 H10         -7.6770     6.6530    11.4690 h1         1 N7M       0.072700
     28 H11         -6.0260     5.9520     9.7050 h1         1 N7M       0.025700
     29 H12         -5.1360     7.4680     9.9430 h1         1 N7M       0.025700
     30 H13         -6.6360     7.5960     8.1830 ho         1 N7M       0.449000
@<TRIPOS>BOND
     1     1     2 ar  
     2     1    10 ar  
     3     1    18 1   
     4     2     3 ar  
     5     2    19 1   
     6     3     4 1   
     7     3     8 ar  
     8     4     5 2   
     9     4     6 2   
    10     4     7 1   
    11     7    20 1   
    12     7    21 1   
    13     8     9 ar  
    14     8    22 1   
    15     9    10 ar  
    16     9    23 1   
    17    10    11 1   
    18    11    12 1   
    19    11    24 1   
    20    12    13 2   
    21    12    14 1   
    22    14    15 1   
    23    14    25 1   
    24    15    16 1   
    25    15    26 1   
    26    15    27 1   
    27    16    17 1   
    28    16    28 1   
    29    16    29 1   
    30    17    30 1   
@<TRIPOS>SUBSTRUCTURE
     1 N7M         1 TEMP              0 ****  ****    0 ROOT
