@<TRIPOS>MOLECULE
N7N
   64    67     1     0     0
SMALL
No Charge or Current Charge


@<TRIPOS>ATOM
      1 C4           0.9280     2.8970     1.7030 c3         1 N7N       0.054700
      2 C5          -0.4930     2.8580     1.0580 c          1 N7N       0.556000
      3 C6           1.3080     3.4040    -1.6030 c3         1 N7N      -0.080400
      4 C7          -0.2200     3.2260    -1.4170 c5         1 N7N       0.140700
      5 C9          -1.7650     1.4740    -0.6130 c5         1 N7N       0.015700
      6 C10         -2.2070     2.0300    -1.9970 c5         1 N7N      -0.086400
      7 C11         -0.8480     2.4420    -2.6000 c5         1 N7N      -0.095400
      8 C12         -1.3440    -0.0240    -0.7760 c          1 N7N       0.605100
      9 C1           1.6420     4.2710     1.6320 c3         1 N7N      -0.080400
     10 C2           1.3690     5.1600     0.3960 c3         1 N7N      -0.074400
     11 C3           1.9310     4.6740    -0.9650 c3         1 N7N      -0.068400
     12 N8          -0.6150     2.3690    -0.2630 n          1 N7N      -0.400800
     13 N13          1.7820     1.8090     1.1870 ns         1 N7N      -0.492900
     14 O14         -1.4900     3.0750     1.7340 o          1 N7N      -0.521000
     15 O16          0.7650     0.1280     2.3040 o          1 N7N      -0.538100
     16 C17          2.5550    -0.4980     0.7280 ca         1 N7N       0.346500
     17 N18          3.6650     0.0900     0.1730 nb         1 N7N      -0.700000
     18 C19          4.5710    -0.6760    -0.4660 ca         1 N7N       0.316900
     19 C20          4.4390    -2.0610    -0.5930 ca         1 N7N      -0.143000
     20 C21          2.3360    -1.9130     0.6200 ca         1 N7N      -0.057000
     21 C22          3.3110    -2.6930    -0.0510 ca         1 N7N      -0.022000
     22 C23          3.1610    -4.0840    -0.1920 ca         1 N7N      -0.132000
     23 C24          2.0270    -4.7260     0.3220 ca         1 N7N      -0.083000
     24 C25          1.0390    -3.9730     0.9700 ca         1 N7N      -0.123000
     25 C26          1.1860    -2.5820     1.1190 ca         1 N7N      -0.038000
     26 O27         -0.2160    -0.4660    -0.9550 o          1 N7N      -0.637100
     27 N28         -2.4510    -0.8340    -0.6550 ns         1 N7N      -0.451900
     28 C29         -2.4140    -2.7360    -2.2730 c3         1 N7N       0.124600
     29 O30         -3.9820    -1.6320     1.9660 o          1 N7N      -0.730000
     30 C32         -3.5550    -2.9500     0.0450 c3         1 N7N      -0.224400
     31 O33         -2.6580    -3.3150     2.2020 o          1 N7N      -0.730000
     32 C34         -2.4220    -2.2940    -0.7800 c3         1 N7N       0.132700
     33 O35         -3.5720    -2.2540    -2.9780 oh         1 N7N      -0.660000
     34 H1           0.7690     2.6840     2.7690 h1         1 N7N       0.088700
     35 H2           1.8400     2.5070    -1.2720 hc         1 N7N       0.053200
     36 H3           1.5280     3.4660    -2.6760 hc         1 N7N       0.053200
     37 H4          -0.6960     4.2130    -1.3450 h1         1 N7N       0.028700
     38 H5          -2.5830     1.5280     0.1180 h1         1 N7N       0.082700
     39 H6          -2.7410     1.2950    -2.6100 hc         1 N7N       0.053700
     40 H7          -2.8670     2.8980    -1.8810 hc         1 N7N       0.053700
     41 H8          -0.9600     3.0640    -3.4960 hc         1 N7N       0.054200
     42 H9          -0.2470     1.5700    -2.8830 hc         1 N7N       0.054200
     43 H10          1.3150     4.8460     2.5080 hc         1 N7N       0.048700
     44 H11          2.7230     4.1350     1.7590 hc         1 N7N       0.048700
     45 H12          0.2960     5.3660     0.3130 hc         1 N7N       0.038700
     46 H13          1.8270     6.1370     0.5980 hc         1 N7N       0.038700
     47 H14          3.0150     4.5310    -0.8770 hc         1 N7N       0.031200
     48 H15          1.7970     5.4970    -1.6770 hc         1 N7N       0.031200
     49 H16          2.5200     2.0210     0.5240 hn         1 N7N       0.331500
     50 H17          5.4340    -0.1590    -0.8840 h4         1 N7N       0.010100
     51 H18          5.2030    -2.6280    -1.1160 ha         1 N7N       0.114000
     52 H19          3.9210    -4.6690    -0.7060 ha         1 N7N       0.106000
     53 H20          1.9090    -5.8010     0.2090 ha         1 N7N       0.107000
     54 H21          0.1500    -4.4660     1.3580 ha         1 N7N       0.126000
     55 H22          0.3740    -2.0550     1.6060 ha         1 N7N       0.183000
     56 H23         -3.3450    -0.3840    -0.5090 hn         1 N7N       0.321500
     57 H24         -1.5030    -2.3530    -2.7500 h1         1 N7N       0.016700
     58 H25         -2.3720    -3.8320    -2.3220 h1         1 N7N       0.016700
     59 H27         -3.4330    -4.0300    -0.1030 hc         1 N7N       0.029200
     60 H28         -4.5030    -2.5570    -0.3420 hc         1 N7N       0.029200
     61 H29         -1.4730    -2.6440    -0.3490 h1         1 N7N       0.095700
     62 H30         -3.5010    -2.5770    -3.9020 ho         1 N7N       0.416000
     63 C31         -3.3940    -2.6090     1.5300 c          1 N7N       0.716000
     64 C15          1.6040     0.4650     1.4770 c          1 N7N       0.496600
@<TRIPOS>BOND
     1     1     2 1   
     2     1     9 1   
     3     1    13 1   
     4     1    34 1   
     5     2    12 1   
     6     2    14 2   
     7     3     4 1   
     8     3    11 1   
     9     3    35 1   
    10     3    36 1   
    11     4     7 1   
    12     4    12 1   
    13     4    37 1   
    14     5     6 1   
    15     5     8 1   
    16     5    12 1   
    17     5    38 1   
    18     6     7 1   
    19     6    39 1   
    20     6    40 1   
    21     7    41 1   
    22     7    42 1   
    23     8    26 2   
    24     8    27 1   
    25     9    10 1   
    26     9    43 1   
    27     9    44 1   
    28    10    11 1   
    29    10    45 1   
    30    10    46 1   
    31    11    47 1   
    32    11    48 1   
    33    13    49 1   
    34    13    64 1   
    35    15    64 2   
    36    16    17 ar  
    37    16    20 ar  
    38    16    64 1   
    39    17    18 ar  
    40    18    19 ar  
    41    18    50 1   
    42    19    21 ar  
    43    19    51 1   
    44    20    21 ar  
    45    20    25 ar  
    46    21    22 ar  
    47    22    23 ar  
    48    22    52 1   
    49    23    24 ar  
    50    23    53 1   
    51    24    25 ar  
    52    24    54 1   
    53    25    55 1   
    54    27    32 1   
    55    27    56 1   
    56    28    32 1   
    57    28    33 1   
    58    28    57 1   
    59    28    58 1   
    60    29    63 1   
    61    30    32 1   
    62    30    59 1   
    63    30    60 1   
    64    30    63 1   
    65    31    63 1   
    66    32    61 1   
    67    33    62 1   
@<TRIPOS>SUBSTRUCTURE
     1 N7N         1 TEMP              0 ****  ****    0 ROOT
