@<TRIPOS>MOLECULE
N7N
   64    67     1     0     0
SMALL
bcc


@<TRIPOS>ATOM
      1 C4           0.8720     2.4790     1.5860 c3         1 N7N       0.054700
      2 C5          -0.4850     2.1330     0.9490 c          1 N7N       0.698500
      3 C6           1.4630     2.8280    -1.5840 c3         1 N7N      -0.080400
      4 C7          -0.0510     2.7120    -1.5590 c5         1 N7N       0.140700
      5 C9          -1.9720     1.4830    -0.7810 c5         1 N7N       0.015700
      6 C10         -2.0380     1.6540    -2.3070 c5         1 N7N      -0.086400
      7 C11         -0.5870     1.8590    -2.6980 c5         1 N7N      -0.095400
      8 C12         -1.9720    -0.0090    -0.4590 c          1 N7N       0.672100
      9 C1           1.2520     3.9580     1.5650 c3         1 N7N      -0.080400
     10 C2           1.2280     4.6940     0.2340 c3         1 N7N      -0.074400
     11 C3           2.0340     4.0900    -0.9140 c3         1 N7N      -0.068400
     12 N8          -0.7090     2.0980    -0.3860 n          1 N7N      -0.467800
     13 N13          1.9510     1.6540     1.1020 ns         1 N7N      -0.559900
     14 O14         -1.3870     1.8230     1.7190 o          1 N7N      -0.596500
     15 O16          1.1440    -0.2750     1.9520 o          1 N7N      -0.538100
     16 C17          3.2100    -0.3450     0.7430 ca         1 N7N       0.411800
     17 N18          4.2750     0.4120     0.6630 nb         1 N7N      -0.700000
     18 C19          5.4390    -0.1150     0.2400 ca         1 N7N       0.382200
     19 C20          5.5680    -1.4270    -0.1130 ca         1 N7N      -0.226300
     20 C21          3.1950    -1.7120     0.3440 ca         1 N7N      -0.122300
     21 C22          4.4330    -2.2630    -0.0830 ca         1 N7N      -0.022000
     22 C23          4.4970    -3.6170    -0.4850 ca         1 N7N      -0.150000
     23 C24          3.3680    -4.3850    -0.4940 ca         1 N7N      -0.101000
     24 C25          2.1290    -3.8290    -0.1170 ca         1 N7N      -0.141000
     25 C26          2.0360    -2.5270     0.2950 ca         1 N7N      -0.056000
     26 O27         -0.9520    -0.6770    -0.4770 o          1 N7N      -0.637100
     27 N28         -3.1980    -0.5180    -0.2670 ns         1 N7N      -0.518900
     28 C29         -3.3330    -2.5440    -1.6490 c3         1 N7N       0.101400
     29 O30         -5.9980    -1.0290     2.1030 o          1 N7N      -0.835300
     30 C32         -4.8840    -2.1490     0.3190 c3         1 N7N      -0.224400
     31 O33         -4.1020    -2.1060     2.5610 o          1 N7N      -0.835300
     32 C34         -3.4930    -1.9390    -0.2600 c3         1 N7N       0.132700
     33 O35         -4.1970    -1.8880    -2.5490 oh         1 N7N      -0.597800
     34 H1           0.7060     2.2260     2.6350 h1         1 N7N       0.088700
     35 H2           1.9040     1.9050    -1.2160 hc         1 N7N       0.053200
     36 H3           1.7400     2.8720    -2.6400 hc         1 N7N       0.053200
     37 H4          -0.4720     3.7180    -1.6860 h1         1 N7N       0.028700
     38 H5          -2.8230     1.9720    -0.3010 h1         1 N7N       0.082700
     39 H6          -2.5160     0.8050    -2.7970 hc         1 N7N       0.053700
     40 H7          -2.6230     2.5420    -2.5540 hc         1 N7N       0.053700
     41 H8          -0.4680     2.3620    -3.6580 hc         1 N7N       0.054200
     42 H9          -0.0460     0.9110    -2.7390 hc         1 N7N       0.054200
     43 H10          0.5800     4.4730     2.2540 hc         1 N7N       0.048700
     44 H11          2.2500     4.0350     2.0070 hc         1 N7N       0.048700
     45 H12          0.1930     4.8490    -0.0850 hc         1 N7N       0.038700
     46 H13          1.6150     5.6980     0.4220 hc         1 N7N       0.038700
     47 H14          3.0650     3.9100    -0.5910 hc         1 N7N       0.031200
     48 H15          2.1090     4.8630    -1.6820 hc         1 N7N       0.031200
     49 H16          2.7800     2.0860     0.7260 hn         1 N7N       0.331500
     50 H17          6.2830     0.5620     0.2020 h4         1 N7N       0.010100
     51 H18          6.5250    -1.8200    -0.4300 ha         1 N7N       0.132000
     52 H19          5.4500    -4.0270    -0.7960 ha         1 N7N       0.124000
     53 H20          3.4170    -5.4200    -0.8060 ha         1 N7N       0.125000
     54 H21          1.2380    -4.4410    -0.1600 ha         1 N7N       0.144000
     55 H22          1.0730    -2.1190     0.5580 ha         1 N7N       0.201000
     56 H23         -3.9810     0.1150    -0.3050 hn         1 N7N       0.321500
     57 H24         -2.2870    -2.4520    -1.9630 h1         1 N7N       0.016700
     58 H25         -3.5530    -3.6190    -1.5790 h1         1 N7N       0.016700
     59 H27         -5.1140    -3.2190     0.2600 hc         1 N7N       0.029200
     60 H28         -5.6330    -1.6390    -0.2920 hc         1 N7N       0.029200
     61 H29         -2.7740    -2.4390     0.3930 h1         1 N7N       0.095700
     62 H30         -3.9930    -2.1950    -3.4360 ho         1 N7N       0.377000
     63 C31         -5.0020    -1.7140     1.7930 c          1 N7N       0.926600
     64 C15          1.9950     0.3320     1.3240 c          1 N7N       0.563600
@<TRIPOS>BOND
     1     1     2 1   
     2     1     9 1   
     3     1    13 1   
     4     1    34 1   
     5     2    12 1   
     6     2    14 2   
     7     3     4 1   
     8     3    11 1   
     9     3    35 1   
    10     3    36 1   
    11     4     7 1   
    12     4    12 1   
    13     4    37 1   
    14     5     6 1   
    15     5     8 1   
    16     5    12 1   
    17     5    38 1   
    18     6     7 1   
    19     6    39 1   
    20     6    40 1   
    21     7    41 1   
    22     7    42 1   
    23     8    26 2   
    24     8    27 1   
    25     9    10 1   
    26     9    43 1   
    27     9    44 1   
    28    10    11 1   
    29    10    45 1   
    30    10    46 1   
    31    11    47 1   
    32    11    48 1   
    33    13    49 1   
    34    13    64 1   
    35    15    64 2   
    36    16    17 ar  
    37    16    20 ar  
    38    16    64 1   
    39    17    18 ar  
    40    18    19 ar  
    41    18    50 1   
    42    19    21 ar  
    43    19    51 1   
    44    20    21 ar  
    45    20    25 ar  
    46    21    22 ar  
    47    22    23 ar  
    48    22    52 1   
    49    23    24 ar  
    50    23    53 1   
    51    24    25 ar  
    52    24    54 1   
    53    25    55 1   
    54    27    32 1   
    55    27    56 1   
    56    28    32 1   
    57    28    33 1   
    58    28    57 1   
    59    28    58 1   
    60    29    63 1   
    61    30    32 1   
    62    30    59 1   
    63    30    60 1   
    64    30    63 1   
    65    31    63 1   
    66    32    61 1   
    67    33    62 1   
@<TRIPOS>SUBSTRUCTURE
     1 N7N         1 TEMP              0 ****  ****    0 ROOT
