@<TRIPOS>MOLECULE
N7O
   42    44     1     0     0
SMALL
bcc


@<TRIPOS>ATOM
      1 C10          3.0050     0.9180    -0.3540 ce         1 N7O      -0.272200
      2 C13          6.6280     0.5530    -1.2470 ca         1 N7O      -0.140000
      3 C20         -2.1700     1.0490    -1.6990 cc         1 N7O      -0.083400
      4 C22         -3.6630    -0.9180    -1.6880 ca         1 N7O      -0.041100
      5 C24         -4.8880    -2.7570    -0.7920 ca         1 N7O      -0.131000
      6 C28         -3.1780    -0.5830    -0.4120 ca         1 N7O      -0.046800
      7 P02         -1.5430     2.9880     0.7610 p5         1 N7O       1.091400
      8 O03         -0.4650     3.3430    -0.2600 o          1 N7O      -0.806000
      9 O04         -2.9330     3.5390     0.5910 o          1 N7O      -0.806000
     10 C05         -1.6560     1.1210     0.7950 c3         1 N7O      -0.272700
     11 C06         -0.3370     0.3890     0.9880 c          1 N7O       0.697100
     12 O07         -0.2480    -0.6190     1.6670 o          1 N7O      -0.618100
     13 N08          0.7090     0.9230     0.3040 ns         1 N7O      -0.496100
     14 C09          1.9680     0.3710     0.2930 c2         1 N7O       0.063600
     15 C11          4.3570     0.3720    -0.3980 ca         1 N7O       0.034200
     16 C12          5.3260     1.0250    -1.1640 ca         1 N7O      -0.139000
     17 C14          6.9780    -0.5870    -0.5590 ca         1 N7O       0.057900
     18 F15          8.2260    -1.0690    -0.6150 f          1 N7O      -0.142900
     19 C16          6.0300    -1.2460     0.2070 ca         1 N7O       0.101900
     20 F17          6.3920    -2.3520     0.8710 f          1 N7O      -0.140900
     21 C18          4.7390    -0.7840     0.2950 ca         1 N7O      -0.170000
     22 C19         -2.3180     0.5730    -0.4390 cd         1 N7O      -0.014400
     23 S21         -3.0520     0.1640    -2.8910 ss         1 N7O      -0.094500
     24 C23         -4.5170    -1.9990    -1.8830 ca         1 N7O      -0.098000
     25 C25         -4.4010    -2.4300     0.4780 ca         1 N7O       0.013400
     26 CL26        -4.8780    -3.4090     1.8270 cl         1 N7O      -0.138400
     27 C27         -3.5530    -1.3640     0.6860 ca         1 N7O      -0.064000
     28 H10          2.8530     1.8430    -0.9030 ha         1 N7O       0.143000
     29 H13          7.3660     1.0700    -1.8460 ha         1 N7O       0.140000
     30 H20         -1.5820     1.9000    -2.0080 h4         1 N7O       0.201000
     31 H24         -5.5510    -3.6020    -0.9190 ha         1 N7O       0.132000
     32 H01         -0.8510     4.4360     2.5630 hc         1 N7O       0.049367
     33 H01A        -1.6160     2.9770     3.1970 hc         1 N7O       0.049367
     34 H01B         0.0560     2.9270     2.6200 hc         1 N7O       0.049367
     35 H05         -2.2780     0.8670     1.6580 hc         1 N7O       0.088700
     36 HN08         0.5330     1.8320    -0.1450 hn         1 N7O       0.392500
     37 H09          2.0580    -0.5520     0.8510 h4         1 N7O       0.143000
     38 H12          5.0610     1.9240    -1.7050 ha         1 N7O       0.139000
     39 H18          4.0410    -1.3310     0.9170 ha         1 N7O       0.152000
     40 H23         -4.8880    -2.2480    -2.8690 ha         1 N7O       0.131000
     41 H27         -3.1830    -1.1390     1.6770 ha         1 N7O       0.162000
     42 C01         -0.9300     3.3550     2.4390 c3         1 N7O      -0.318300
@<TRIPOS>BOND
     1     1    14 2   
     2     1    15 1   
     3     1    28 1   
     4     2    16 ar  
     5     2    17 ar  
     6     2    29 1   
     7     3    22 2   
     8     3    23 1   
     9     3    30 1   
    10     4     6 ar  
    11     4    23 1   
    12     4    24 ar  
    13     5    24 ar  
    14     5    25 ar  
    15     5    31 1   
    16     6    22 1   
    17     6    27 ar  
    18     7     8 1   
    19     7     9 1   
    20     7    10 1   
    21     7    42 1   
    22    10    11 1   
    23    10    22 1   
    24    10    35 1   
    25    11    12 2   
    26    11    13 1   
    27    13    14 1   
    28    13    36 1   
    29    14    37 1   
    30    15    16 ar  
    31    15    21 ar  
    32    16    38 1   
    33    17    18 1   
    34    17    19 ar  
    35    19    20 1   
    36    19    21 ar  
    37    21    39 1   
    38    24    40 1   
    39    25    26 1   
    40    25    27 ar  
    41    27    41 1   
    42    32    42 1   
    43    33    42 1   
    44    34    42 1   
@<TRIPOS>SUBSTRUCTURE
     1 N7O         1 TEMP              0 ****  ****    0 ROOT
