@<TRIPOS>MOLECULE
N7O
   42    44     1     0     0
SMALL
No Charge or Current Charge


@<TRIPOS>ATOM
      1 C10          2.6370     0.5230    -0.5340 ce         1 N7O      -0.322200
      2 C13          6.1940    -0.1730    -1.6810 ca         1 N7O      -0.122000
      3 C20         -2.4620     1.6370    -1.5770 cc         1 N7O      -0.133400
      4 C22         -3.2990    -0.7080    -1.8150 ca         1 N7O      -0.168000
      5 C24         -3.8820    -2.9690    -1.1830 ca         1 N7O      -0.113000
      6 C28         -2.8860    -0.4390    -0.5260 ca         1 N7O      -0.046800
      7 P02         -1.6440     3.2540     1.1050 p5         1 N7O       1.407000
      8 O03         -0.6160     3.7420     0.1390 o          1 N7O      -0.806000
      9 O04         -2.9610     3.9420     0.9430 o          1 N7O      -0.806000
     10 C05         -1.8640     1.4660     0.9200 c3         1 N7O      -0.430500
     11 C06         -0.5390     0.8820     1.3230 c          1 N7O       0.630100
     12 O07         -0.3780     0.3350     2.4020 o          1 N7O      -0.618100
     13 N08          0.4510     0.9300     0.3720 ns         1 N7O      -0.429100
     14 C09          1.7480     0.4040     0.4740 c2         1 N7O       0.013600
     15 C11          4.0360     0.0070    -0.5370 ca         1 N7O       0.034200
     16 C12          4.8680     0.2960    -1.6390 ca         1 N7O      -0.121000
     17 C14          6.6980    -0.9380    -0.6180 ca         1 N7O       0.093000
     18 F15          7.9730    -1.3870    -0.6640 f          1 N7O      -0.178000
     19 C16          5.8750    -1.2340     0.4840 ca         1 N7O       0.137000
     20 F17          6.3520    -1.9730     1.5130 f          1 N7O      -0.176000
     21 C18          4.5510    -0.7650     0.5260 ca         1 N7O      -0.152000
     22 C19         -2.4010     0.9210    -0.3910 cd         1 N7O      -0.014400
     23 S21         -3.1250     0.6720    -2.9240 ss         1 N7O       0.032400
     24 C23         -3.8020    -1.9690    -2.1710 ca         1 N7O      -0.080000
     25 C25         -3.4620    -2.6960     0.1350 ca         1 N7O       0.105000
     26 Cl26        -3.5650    -3.9520     1.3630 cl         1 N7O      -0.230000
     27 C27         -2.9600    -1.4250     0.4740 ca         1 N7O      -0.046000
     28 H10          2.3460     1.0420    -1.4490 ha         1 N7O       0.193000
     29 H13          6.8280     0.0560    -2.5340 ha         1 N7O       0.122000
     30 H20         -2.1700     2.6610    -1.7780 h4         1 N7O       0.251000
     31 H24         -4.2690    -3.9530    -1.4360 ha         1 N7O       0.114000
     32 H01         -1.1350     4.5780     3.0660 hc         1 N7O       0.049367
     33 H01A        -1.6690     2.9330     3.5120 hc         1 N7O       0.049367
     34 H01B        -0.0080     3.2050     2.9040 hc         1 N7O       0.049367
     35 H05         -2.5820     1.2530     1.7170 hc         1 N7O       0.088700
     36 HN08         0.1980     1.4070    -0.4850 hn         1 N7O       0.392500
     37 H09          1.9590    -0.0940     1.4230 h4         1 N7O       0.193000
     38 H12          4.4870     0.8880    -2.4670 ha         1 N7O       0.121000
     39 H18          3.9400    -1.0130     1.3880 ha         1 N7O       0.134000
     40 H23         -4.1250    -2.1710    -3.1910 ha         1 N7O       0.113000
     41 H27         -2.6380    -1.2200     1.4900 ha         1 N7O       0.144000
     42 C01         -1.0540     3.5150     2.8170 c3         1 N7O      -0.476100
@<TRIPOS>BOND
     1     1    14 2   
     2     1    15 1   
     3     1    28 1   
     4     2    16 ar  
     5     2    17 ar  
     6     2    29 1   
     7     3    22 2   
     8     3    23 1   
     9     3    30 1   
    10     4     6 ar  
    11     4    23 1   
    12     4    24 ar  
    13     5    24 ar  
    14     5    25 ar  
    15     5    31 1   
    16     6    22 1   
    17     6    27 ar  
    18     7     8 1   
    19     7     9 1   
    20     7    10 1   
    21     7    42 1   
    22    10    11 1   
    23    10    22 1   
    24    10    35 1   
    25    11    12 2   
    26    11    13 1   
    27    13    14 1   
    28    13    36 1   
    29    14    37 1   
    30    15    16 ar  
    31    15    21 ar  
    32    16    38 1   
    33    17    18 1   
    34    17    19 ar  
    35    19    20 1   
    36    19    21 ar  
    37    21    39 1   
    38    24    40 1   
    39    25    26 1   
    40    25    27 ar  
    41    27    41 1   
    42    32    42 1   
    43    33    42 1   
    44    34    42 1   
@<TRIPOS>SUBSTRUCTURE
     1 N7O         1 TEMP              0 ****  ****    0 ROOT
