@<TRIPOS>MOLECULE
N7P
   21    21     1     0     0
SMALL
bcc


@<TRIPOS>ATOM
      1 OXT         20.6400    75.2090    63.5830 o          1 N7P      -0.830300
      2 C           20.5180    76.4180    63.3030 c          1 N7P       0.932600
      3 O           21.0220    77.3900    63.8920 o          1 N7P      -0.830300
      4 CA          19.6740    76.7000    62.0340 c5         1 N7P      -0.036300
      5 N           19.3030    78.0960    61.8860 n          1 N7P      -0.440800
      6 C1          18.3370    78.6500    62.6320 c          1 N7P       0.676100
      7 O1          17.6660    77.9950    63.4260 o          1 N7P      -0.626100
      8 C2          18.1040    80.1290    62.4290 c3         1 N7P      -0.176100
      9 CD          20.1770    78.8190    60.9720 c5         1 N7P       0.117000
     10 CG          21.2190    77.7790    60.5630 c5         1 N7P      -0.089400
     11 CB          20.4960    76.4510    60.7660 c5         1 N7P      -0.072400
     12 HA          18.7810    76.0720    62.0530 h1         1 N7P       0.063700
     13 H3          17.2280    80.4450    62.9900 hc         1 N7P       0.040700
     14 H4          18.9610    80.7100    62.7750 hc         1 N7P       0.040700
     15 H5          17.9540    80.3780    61.3780 hc         1 N7P       0.040700
     16 HD2         20.6350    79.6880    61.4480 h1         1 N7P       0.017700
     17 HD3         19.6170    79.1770    60.1040 h1         1 N7P       0.017700
     18 HG2         22.0890    77.8380    61.2180 hc         1 N7P       0.042200
     19 HG3         21.5650    77.9310    59.5410 hc         1 N7P       0.042200
     20 HB2         19.8320    76.2490    59.9220 hc         1 N7P       0.035200
     21 HB3         21.1690    75.6020    60.8680 hc         1 N7P       0.035200
@<TRIPOS>BOND
     1     1     2 1   
     2     2     3 1   
     3     2     4 1   
     4     4     5 1   
     5     4    11 1   
     6     4    12 1   
     7     5     6 1   
     8     5     9 1   
     9     6     7 2   
    10     6     8 1   
    11     8    13 1   
    12     8    14 1   
    13     8    15 1   
    14     9    10 1   
    15     9    16 1   
    16     9    17 1   
    17    10    11 1   
    18    10    18 1   
    19    10    19 1   
    20    11    20 1   
    21    11    21 1   
@<TRIPOS>SUBSTRUCTURE
     1 N7P         1 TEMP              0 ****  ****    0 ROOT
