@<TRIPOS>MOLECULE
N7P
   21    21     1     0     0
SMALL
No Charge or Current Charge


@<TRIPOS>ATOM
      1 OXT         20.4090    75.1260    63.7280 o          1 N7P      -0.725000
      2 C           20.5120    76.2710    63.3080 c          1 N7P       0.722000
      3 O           21.1700    77.1130    63.9060 o          1 N7P      -0.725000
      4 CA          19.6990    76.6690    62.0250 c5         1 N7P      -0.036300
      5 N           19.3430    78.1150    61.9080 n          1 N7P      -0.373800
      6 C1          18.3350    78.7170    62.6890 c          1 N7P       0.609100
      7 O1          17.6950    78.0640    63.5060 o          1 N7P      -0.626100
      8 C2          18.0490    80.2100    62.4920 c3         1 N7P      -0.176100
      9 CD          20.1120    78.8220    60.8630 c5         1 N7P       0.117000
     10 CG          21.2680    77.8260    60.5840 c5         1 N7P      -0.089400
     11 CB          20.5660    76.4550    60.7480 c5         1 N7P      -0.072400
     12 HA          18.8020    76.0380    61.9950 h1         1 N7P       0.063700
     13 H3          17.2250    80.5690    63.1190 hc         1 N7P       0.040700
     14 H4          18.9660    80.7790    62.6820 hc         1 N7P       0.040700
     15 H5          17.8620    80.4090    61.4300 hc         1 N7P       0.040700
     16 HD2         20.4920    79.7940    61.2030 h1         1 N7P       0.017700
     17 HD3         19.4920    78.9770    59.9710 h1         1 N7P       0.017700
     18 HG2         22.0770    77.9470    61.3140 hc         1 N7P       0.042200
     19 HG3         21.7060    77.9630    59.5890 hc         1 N7P       0.042200
     20 HB2         19.9320    76.2400    59.8790 hc         1 N7P       0.035200
     21 HB3         21.2730    75.6230    60.8440 hc         1 N7P       0.035200
@<TRIPOS>BOND
     1     1     2 1   
     2     2     3 1   
     3     2     4 1   
     4     4     5 1   
     5     4    11 1   
     6     4    12 1   
     7     5     6 1   
     8     5     9 1   
     9     6     7 2   
    10     6     8 1   
    11     8    13 1   
    12     8    14 1   
    13     8    15 1   
    14     9    10 1   
    15     9    16 1   
    16     9    17 1   
    17    10    11 1   
    18    10    18 1   
    19    10    19 1   
    20    11    20 1   
    21    11    21 1   
@<TRIPOS>SUBSTRUCTURE
     1 N7P         1 TEMP              0 ****  ****    0 ROOT
