@<TRIPOS>MOLECULE
N7Q
   67    71     1     0     0
SMALL
bcc


@<TRIPOS>ATOM
      1 C4         -41.8690    12.3630     0.1190 ca         1 N7Q       0.472800
      2 C5         -42.9940    11.5570    -0.1050 ca         1 N7Q      -0.373400
      3 C6         -42.7390    10.1690    -0.0780 ca         1 N7Q       0.765200
      4 N1         -41.5260     9.7310     0.2340 nb         1 N7Q      -0.813000
      5 N3         -40.6400    11.9320     0.4100 nb         1 N7Q      -0.749000
      6 C2         -40.5590    10.6210     0.4660 ca         1 N7Q       0.705900
      7 CAK        -43.5880    13.7010    -0.2990 cc         1 N7Q      -0.113100
      8 CAL        -44.1010    12.4340    -0.3620 cd         1 N7Q      -0.048400
      9 CAM        -45.5090    12.0950    -0.5980 ca         1 N7Q      -0.061800
     10 CAN        -43.7700     7.8990    -0.3430 ca         1 N7Q       0.147600
     11 CAO        -44.9690     7.2980    -0.7300 ca         1 N7Q      -0.152000
     12 CAP        -45.1300     5.9250    -0.7090 ca         1 N7Q      -0.167000
     13 CAQ        -44.0930     5.0950    -0.2920 ca         1 N7Q       0.110100
     14 CAR        -42.8980     5.7040     0.0840 ca         1 N7Q       0.013400
     15 CAS        -42.7220     7.0760     0.0690 ca         1 N7Q      -0.114000
     16 CAT        -45.2440     3.0870    -0.8160 c3         1 N7Q       0.085100
     17 CAU        -45.2480     3.2070    -2.3190 ca         1 N7Q       0.364600
     18 CAV        -44.0610     3.2600    -3.0420 ca         1 N7Q      -0.218300
     19 CAW        -44.1310     3.3400    -4.4230 ca         1 N7Q      -0.091000
     20 CAX        -45.3770     3.3520    -5.0330 ca         1 N7Q      -0.240300
     21 CAY        -46.5010     3.2880    -4.2240 ca         1 N7Q       0.404200
     22 CAZ        -46.2170    12.6610    -1.6610 ca         1 N7Q      -0.085000
     23 CBA        -47.5510    12.3730    -1.8770 ca         1 N7Q       0.014600
     24 CBB        -48.2250    11.4770    -1.0310 ca         1 N7Q       0.158100
     25 CBC        -47.5270    10.8960     0.0240 ca         1 N7Q      -0.220000
     26 CBD        -46.1940    11.2160     0.2390 ca         1 N7Q      -0.095000
     27 CBE        -50.2570    10.3850    -0.4730 c3         1 N7Q       0.138400
     28 CBF        -51.6790    10.3420    -0.9680 c3         1 N7Q       0.140400
     29 CBG        -48.6870    12.3070    -4.0190 c          1 N7Q       0.677100
     30 CBH        -49.5910    13.0940    -4.9410 c3         1 N7Q      -0.155400
     31 CBI        -49.4490    12.6910    -6.3990 c3         1 N7Q      -0.078100
     32 NAC        -42.2520    13.6530    -0.0130 na         1 N7Q      -0.260100
     33 NAD        -43.7250     9.2900    -0.3900 nu         1 N7Q      -0.734300
     34 NAE        -46.4430     3.2240    -2.8990 nb         1 N7Q      -0.674000
     35 NAF        -48.2520    12.9900    -2.9340 ns         1 N7Q      -0.496100
     36 OBJ        -44.1510     3.7510    -0.2160 os         1 N7Q      -0.301900
     37 OBK        -49.5150    11.2610    -1.3030 os         1 N7Q      -0.298900
     38 OBL        -51.7180     9.7420    -2.2380 oh         1 N7Q      -0.577800
     39 OBM        -48.3810    11.1460    -4.2250 o          1 N7Q      -0.574100
     40 CL1        -41.5810     4.7000     0.5850 cl         1 N7Q      -0.098400
     41 H1         -39.5910    10.2030     0.7190 h5         1 N7Q       0.048100
     42 H2         -44.0930    14.6470    -0.4160 h4         1 N7Q       0.169000
     43 H3         -45.8030     7.9100    -1.0540 ha         1 N7Q       0.139000
     44 H4         -46.0820     5.5210    -1.0210 ha         1 N7Q       0.151000
     45 H5         -41.7770     7.4990     0.3690 ha         1 N7Q       0.186000
     46 H6         -46.2030     3.4240    -0.4120 h1         1 N7Q       0.074700
     47 H7         -45.1280     2.0390    -0.5310 h1         1 N7Q       0.074700
     48 H8         -43.1040     3.2410    -2.5370 ha         1 N7Q       0.157000
     49 H9         -43.2270     3.3880    -5.0160 ha         1 N7Q       0.140000
     50 H10        -45.4790     3.4110    -6.1080 ha         1 N7Q       0.143000
     51 H11        -47.4920     3.2960    -4.6630 h4         1 N7Q       0.020100
     52 H12        -45.7150    13.3370    -2.3430 ha         1 N7Q       0.142000
     53 H13        -48.0120    10.2090     0.7050 ha         1 N7Q       0.140000
     54 H14        -45.6890    10.7850     1.0950 ha         1 N7Q       0.141000
     55 H15        -50.2590    10.7410     0.5630 h1         1 N7Q       0.045200
     56 H16        -49.8190     9.3800    -0.4800 h1         1 N7Q       0.045200
     57 H17        -52.0870    11.3610    -0.9790 h1         1 N7Q       0.027200
     58 H18        -52.2570     9.7770    -0.2250 h1         1 N7Q       0.027200
     59 H19        -49.4200    14.1660    -4.8200 hc         1 N7Q       0.053700
     60 H20        -50.6180    12.9150    -4.6050 hc         1 N7Q       0.053700
     61 H21        -50.1470    13.2550    -7.0170 hc         1 N7Q       0.042033
     62 H22        -48.4430    12.8880    -6.7710 hc         1 N7Q       0.042033
     63 H23        -49.6590    11.6330    -6.5420 hc         1 N7Q       0.042033
     64 H24        -41.6530    14.4530     0.1140 hn         1 N7Q       0.314700
     65 H25        -44.5810     9.7140    -0.7120 hn         1 N7Q       0.455800
     66 H26        -48.5120    13.9590    -2.8290 hn         1 N7Q       0.318500
     67 H27        -52.6320     9.7330    -2.5350 ho         1 N7Q       0.404000
@<TRIPOS>BOND
     1     1     2 ar  
     2     1     5 ar  
     3     1    32 1   
     4     2     3 ar  
     5     2     8 1   
     6     3     4 ar  
     7     3    33 1   
     8     4     6 ar  
     9     5     6 ar  
    10     6    41 1   
    11     7     8 2   
    12     7    32 1   
    13     7    42 1   
    14     8     9 1   
    15     9    22 ar  
    16     9    26 ar  
    17    10    11 ar  
    18    10    15 ar  
    19    10    33 1   
    20    11    12 ar  
    21    11    43 1   
    22    12    13 ar  
    23    12    44 1   
    24    13    14 ar  
    25    13    36 1   
    26    14    15 ar  
    27    14    40 1   
    28    15    45 1   
    29    16    17 1   
    30    16    36 1   
    31    16    46 1   
    32    16    47 1   
    33    17    18 ar  
    34    17    34 ar  
    35    18    19 ar  
    36    18    48 1   
    37    19    20 ar  
    38    19    49 1   
    39    20    21 ar  
    40    20    50 1   
    41    21    34 ar  
    42    21    51 1   
    43    22    23 ar  
    44    22    52 1   
    45    23    24 ar  
    46    23    35 1   
    47    24    25 ar  
    48    24    37 1   
    49    25    26 ar  
    50    25    53 1   
    51    26    54 1   
    52    27    28 1   
    53    27    37 1   
    54    27    55 1   
    55    27    56 1   
    56    28    38 1   
    57    28    57 1   
    58    28    58 1   
    59    29    30 1   
    60    29    35 1   
    61    29    39 2   
    62    30    31 1   
    63    30    59 1   
    64    30    60 1   
    65    31    61 1   
    66    31    62 1   
    67    31    63 1   
    68    32    64 1   
    69    33    65 1   
    70    35    66 1   
    71    38    67 1   
@<TRIPOS>SUBSTRUCTURE
     1 N7Q         1 TEMP              0 ****  ****    0 ROOT
