@<TRIPOS>MOLECULE
N7Q
   67    71     1     0     0
SMALL
No Charge or Current Charge


@<TRIPOS>ATOM
      1 C4         -41.7890    12.3480    -0.3460 ca         1 N7Q       0.144500
      2 C5         -42.9060    11.5440    -0.3880 ca         1 N7Q      -0.242800
      3 C6         -42.7460    10.1490    -0.2830 ca         1 N7Q       0.436900
      4 N1         -41.5210     9.6280    -0.0770 nb         1 N7Q      -0.287000
      5 N3         -40.5600    11.8450    -0.1340 nb         1 N7Q      -0.223000
      6 C2         -40.4930    10.5020     0.0120 ca         1 N7Q       0.179900
      7 CAK        -43.5680    13.7160    -0.8710 cc         1 N7Q      -0.163100
      8 CAL        -44.0380    12.4320    -0.6460 cd         1 N7Q      -0.048400
      9 CAM        -45.4560    12.0420    -0.7890 ca         1 N7Q      -0.061800
     10 CAN        -43.9950     7.8950    -0.3980 ca         1 N7Q       0.286000
     11 CAO        -45.0530     7.3090    -1.1130 ca         1 N7Q      -0.134000
     12 CAP        -45.3250     5.9330    -1.0020 ca         1 N7Q      -0.149000
     13 CAQ        -44.5340     5.1220    -0.1580 ca         1 N7Q       0.110100
     14 CAR        -43.4860     5.7170     0.5770 ca         1 N7Q       0.105000
     15 CAS        -43.2210     7.0920     0.4590 ca         1 N7Q      -0.096000
     16 CAT        -45.6540     3.0130    -0.8650 c3         1 N7Q       0.108300
     17 CAU        -45.1290     2.9690    -2.3040 ca         1 N7Q       0.299300
     18 CAV        -43.7690     2.7080    -2.5700 ca         1 N7Q      -0.135000
     19 CAW        -43.3210     2.6750    -3.9010 ca         1 N7Q      -0.073000
     20 CAX        -44.2590     2.9020    -4.9200 ca         1 N7Q      -0.157000
     21 CAY        -45.5990     3.1490    -4.5750 ca         1 N7Q       0.338900
     22 CAZ        -46.2770    12.7110    -1.7200 ca         1 N7Q      -0.067000
     23 CBA        -47.6310    12.3620    -1.8780 ca         1 N7Q      -0.078000
     24 CBB        -48.2050    11.3700    -1.0490 ca         1 N7Q       0.158100
     25 CBC        -47.3970    10.7310    -0.0830 ca         1 N7Q      -0.202000
     26 CBD        -46.0410    11.0720     0.0470 ca         1 N7Q      -0.077000
     27 CBE        -50.2310    10.1620    -0.2970 c3         1 N7Q       0.161600
     28 CBF        -51.7410    10.1460    -0.6460 c3         1 N7Q       0.163600
     29 CBG        -49.2060    12.5570    -3.8630 c          1 N7Q       0.610100
     30 CBH        -49.9880    13.6270    -4.6390 c3         1 N7Q      -0.155400
     31 CBI        -49.4060    13.8500    -6.0530 c3         1 N7Q      -0.078100
     32 NAC        -42.1830    13.6440    -0.6220 na         1 N7Q      -0.310400
     33 NAD        -43.7880     9.2710    -0.5410 nu         1 N7Q      -0.927900
     34 NAE        -46.0340     3.1820    -3.2930 nb         1 N7Q      -0.674000
     35 NAF        -48.3910    13.0540    -2.8560 ns         1 N7Q      -0.170000
     36 OBJ        -44.7590     3.7630    -0.0110 os         1 N7Q      -0.325100
     37 OBK        -49.5580    11.1050    -1.1560 os         1 N7Q      -0.322100
     38 OBL        -51.9790     9.5600    -1.9380 oh         1 N7Q      -0.640000
     39 OBM        -49.3040    11.3640    -4.1280 o          1 N7Q      -0.574100
     40 Cl1        -42.4840     4.7480     1.6590 cl         1 N7Q      -0.190000
     41 H1         -39.5050    10.0790     0.1850 h5         1 N7Q       0.048100
     42 H2         -44.0850    14.6370    -1.1260 h4         1 N7Q       0.219000
     43 H3         -45.6700     7.9210    -1.7660 ha         1 N7Q       0.121000
     44 H4         -46.1520     5.5190    -1.5710 ha         1 N7Q       0.133000
     45 H5         -42.4250     7.5230     1.0520 ha         1 N7Q       0.168000
     46 H6         -46.6650     3.4390    -0.8410 h1         1 N7Q       0.074700
     47 H7         -45.7330     1.9810    -0.5020 h1         1 N7Q       0.074700
     48 H8         -43.0740     2.5370    -1.7520 ha         1 N7Q       0.139000
     49 H9         -42.2760     2.4790    -4.1340 ha         1 N7Q       0.122000
     50 H10        -43.9610     2.8860    -5.9640 ha         1 N7Q       0.125000
     51 H11        -46.3470     3.3260    -5.3470 h4         1 N7Q       0.020100
     52 H12        -45.8510    13.4810    -2.3580 ha         1 N7Q       0.124000
     53 H13        -47.8070     9.9870     0.5940 ha         1 N7Q       0.122000
     54 H14        -45.4590    10.6150     0.8450 ha         1 N7Q       0.123000
     55 H15        -50.1200    10.4580     0.7540 h1         1 N7Q       0.045200
     56 H16        -49.8160     9.1530    -0.4180 h1         1 N7Q       0.045200
     57 H17        -52.1260    11.1740    -0.6130 h1         1 N7Q       0.027200
     58 H18        -52.2690     9.5720     0.1260 h1         1 N7Q       0.027200
     59 H19        -49.9580    14.5820    -4.1000 hc         1 N7Q       0.053700
     60 H20        -51.0280    13.2960    -4.7450 hc         1 N7Q       0.053700
     61 H21        -49.9800    14.6170    -6.5870 hc         1 N7Q       0.042033
     62 H22        -48.3620    14.1820    -5.9950 hc         1 N7Q       0.042033
     63 H23        -49.4420    12.9240    -6.6400 hc         1 N7Q       0.042033
     64 H24        -41.5400    14.4290    -0.6640 hn         1 N7Q       0.365000
     65 H25        -44.5800     9.7610    -0.9520 hn         1 N7Q       0.511000
     66 H26        -48.3500    14.0630    -2.7940 hn         1 N7Q       0.152000
     67 H27        -52.9450     9.6210    -2.1070 ho         1 N7Q       0.443000
@<TRIPOS>BOND
     1     1     2 ar  
     2     1     5 ar  
     3     1    32 1   
     4     2     3 ar  
     5     2     8 1   
     6     3     4 ar  
     7     3    33 1   
     8     4     6 ar  
     9     5     6 ar  
    10     6    41 1   
    11     7     8 2   
    12     7    32 1   
    13     7    42 1   
    14     8     9 1   
    15     9    22 ar  
    16     9    26 ar  
    17    10    11 ar  
    18    10    15 ar  
    19    10    33 1   
    20    11    12 ar  
    21    11    43 1   
    22    12    13 ar  
    23    12    44 1   
    24    13    14 ar  
    25    13    36 1   
    26    14    15 ar  
    27    14    40 1   
    28    15    45 1   
    29    16    17 1   
    30    16    36 1   
    31    16    46 1   
    32    16    47 1   
    33    17    18 ar  
    34    17    34 ar  
    35    18    19 ar  
    36    18    48 1   
    37    19    20 ar  
    38    19    49 1   
    39    20    21 ar  
    40    20    50 1   
    41    21    34 ar  
    42    21    51 1   
    43    22    23 ar  
    44    22    52 1   
    45    23    24 ar  
    46    23    35 1   
    47    24    25 ar  
    48    24    37 1   
    49    25    26 ar  
    50    25    53 1   
    51    26    54 1   
    52    27    28 1   
    53    27    37 1   
    54    27    55 1   
    55    27    56 1   
    56    28    38 1   
    57    28    57 1   
    58    28    58 1   
    59    29    30 1   
    60    29    35 1   
    61    29    39 2   
    62    30    31 1   
    63    30    59 1   
    64    30    60 1   
    65    31    61 1   
    66    31    62 1   
    67    31    63 1   
    68    32    64 1   
    69    33    65 1   
    70    35    66 1   
    71    38    67 1   
@<TRIPOS>SUBSTRUCTURE
     1 N7Q         1 TEMP              0 ****  ****    0 ROOT
