@<TRIPOS>MOLECULE
N7R
   67    71     1     0     0
SMALL
abcg2


@<TRIPOS>ATOM
      1 F1          -7.8540    -3.2710    -1.1070 f          1 N7R      -0.159000
      2 C2          -6.7250    -3.1600    -0.3980 ca         1 N7R       0.136000
      3 C3          -6.4020    -4.1060     0.5490 ca         1 N7R      -0.126000
      4 C4          -5.2180    -3.9530     1.2590 ca         1 N7R      -0.098000
      5 C5          -4.3880    -2.8710     1.0150 ca         1 N7R      -0.104000
      6 C6          -4.7120    -1.9040     0.0610 ca         1 N7R      -0.096300
      7 C7          -3.8000    -0.7330    -0.2140 c3         1 N7R      -0.035400
      8 C9          -2.5780    -1.2230    -0.9970 c3         1 N7R      -0.069400
      9 C10         -1.5520    -0.1520    -1.3390 c3         1 N7R      -0.082400
     10 C11         -0.9120     0.4900    -0.1000 c3         1 N7R       0.038700
     11 N13          0.4210     0.9370    -0.4000 ns         1 N7R      -0.481900
     12 C14          1.2360     1.3090     0.6300 c          1 N7R       0.647100
     13 O15          0.9120     1.1020     1.7940 o          1 N7R      -0.635100
     14 N16          2.4230     1.9060     0.2980 n          1 N7R      -0.388800
     15 C17          3.0450     1.7680    -1.0100 c6         1 N7R       0.093500
     16 C18          3.9320     0.5280    -1.0630 c6         1 N7R      -0.127900
     17 C19          4.9700     0.5880     0.0560 c6         1 N7R       0.142700
     18 C20          4.3300     0.8400     1.4210 c6         1 N7R      -0.127900
     19 C21          3.4180     2.0600     1.3470 c6         1 N7R       0.093500
     20 N22          5.8450    -0.5750     0.0600 n          1 N7R      -0.294000
     21 C23          5.4360    -1.8780     0.2670 c          1 N7R       0.599000
     22 O24          4.3060    -2.2700     0.4840 o          1 N7R      -0.551000
     23 N25          6.5710    -2.6510     0.1800 ns         1 N7R      -0.586900
     24 C27          7.6690    -1.8710    -0.0730 ca         1 N7R       0.419900
     25 N28          8.9090    -2.2620    -0.2160 nb         1 N7R      -0.665000
     26 C29          9.7910    -1.2840    -0.4560 ca         1 N7R       0.335900
     27 C30          9.4490     0.0550    -0.5500 ca         1 N7R      -0.165000
     28 C31          8.1180     0.4540    -0.3930 ca         1 N7R      -0.079000
     29 C32          7.2080    -0.5470    -0.1480 ca         1 N7R      -0.036400
     30 C33         -1.7650     1.6550     0.4060 c          1 N7R       0.550000
     31 O34         -1.3860     2.8060     0.2930 o          1 N7R      -0.541000
     32 N35         -2.9660     1.3340     0.9530 n          1 N7R      -0.408800
     33 C36         -3.7910     2.4000     1.4660 c3         1 N7R       0.032000
     34 C37         -4.8550     2.8460     0.4860 c3         1 N7R       0.276000
     35 F38         -4.3480     3.1740    -0.7070 f          1 N7R      -0.114333
     36 F39         -5.7750     1.8930     0.2630 f          1 N7R      -0.114333
     37 F40         -5.5100     3.9150     0.9540 f          1 N7R      -0.114333
     38 C41         -3.4300    -0.0390     1.1070 c3         1 N7R       0.111000
     39 C42         -5.8950    -2.0770    -0.6380 ca         1 N7R       0.140000
     40 F43         -6.2680    -1.1950    -1.5750 f          1 N7R      -0.157000
     41 H3          -7.0630    -4.9440     0.7250 ha         1 N7R       0.138000
     42 H4          -4.9440    -4.6870     2.0040 ha         1 N7R       0.125000
     43 H5          -3.4690    -2.7780     1.5790 ha         1 N7R       0.122000
     44 H7          -4.3320    -0.0050    -0.8290 hc         1 N7R       0.085700
     45 H9          -2.0800    -2.0140    -0.4280 hc         1 N7R       0.053200
     46 H9A         -2.9220    -1.6820    -1.9270 hc         1 N7R       0.053200
     47 H10         -0.7570    -0.6270    -1.9160 hc         1 N7R       0.059700
     48 H10A        -1.9930     0.6130    -1.9850 hc         1 N7R       0.059700
     49 H11         -0.8350    -0.2710     0.6810 h1         1 N7R       0.096700
     50 HN13         0.5430     1.3660    -1.3020 hn         1 N7R       0.310500
     51 H17          2.3110     1.7410    -1.8120 h1         1 N7R       0.060950
     52 H17A         3.6420     2.6670    -1.1890 h1         1 N7R       0.060950
     53 H18          3.3080    -0.3620    -0.9620 hc         1 N7R       0.070700
     54 H18A         4.4330     0.4740    -2.0310 hc         1 N7R       0.070700
     55 H19          5.6240     1.4390    -0.1530 h1         1 N7R       0.051700
     56 H20          3.7520    -0.0280     1.7420 hc         1 N7R       0.070700
     57 H20A         5.1110     1.0080     2.1670 hc         1 N7R       0.070700
     58 H21          4.0070     2.9530     1.1190 h1         1 N7R       0.060950
     59 H21A         2.9310     2.2340     2.3020 h1         1 N7R       0.060950
     60 HN25         6.5700    -3.6540     0.2840 hn         1 N7R       0.479000
     61 H29         10.8220    -1.5900    -0.5770 h4         1 N7R       0.026100
     62 H30         10.2160     0.7910    -0.7440 ha         1 N7R       0.127000
     63 H31          7.8390     1.4970    -0.4620 ha         1 N7R       0.127000
     64 H36         -4.2840     2.0770     2.3850 h1         1 N7R       0.094700
     65 H36A        -3.1720     3.2600     1.7140 h1         1 N7R       0.094700
     66 H41         -4.3080    -0.0060     1.7500 h1         1 N7R       0.058200
     67 H41A        -2.6860    -0.6230     1.6550 h1         1 N7R       0.058200
@<TRIPOS>BOND
     1     1     2 1   
     2     2     3 ar  
     3     2    39 ar  
     4     3     4 ar  
     5     3    41 1   
     6     4     5 ar  
     7     4    42 1   
     8     5     6 ar  
     9     5    43 1   
    10     6     7 1   
    11     6    39 ar  
    12     7     8 1   
    13     7    38 1   
    14     7    44 1   
    15     8     9 1   
    16     8    45 1   
    17     8    46 1   
    18     9    10 1   
    19     9    47 1   
    20     9    48 1   
    21    10    11 1   
    22    10    30 1   
    23    10    49 1   
    24    11    12 1   
    25    11    50 1   
    26    12    13 2   
    27    12    14 1   
    28    14    15 1   
    29    14    19 1   
    30    15    16 1   
    31    15    51 1   
    32    15    52 1   
    33    16    17 1   
    34    16    53 1   
    35    16    54 1   
    36    17    18 1   
    37    17    20 1   
    38    17    55 1   
    39    18    19 1   
    40    18    56 1   
    41    18    57 1   
    42    19    58 1   
    43    19    59 1   
    44    20    21 1   
    45    20    29 1   
    46    21    22 2   
    47    21    23 1   
    48    23    24 1   
    49    23    60 1   
    50    24    25 ar  
    51    24    29 ar  
    52    25    26 ar  
    53    26    27 ar  
    54    26    61 1   
    55    27    28 ar  
    56    27    62 1   
    57    28    29 ar  
    58    28    63 1   
    59    30    31 2   
    60    30    32 1   
    61    32    33 1   
    62    32    38 1   
    63    33    34 1   
    64    33    64 1   
    65    33    65 1   
    66    34    35 1   
    67    34    36 1   
    68    34    37 1   
    69    38    66 1   
    70    38    67 1   
    71    39    40 1   
@<TRIPOS>SUBSTRUCTURE
     1 N7R         1 TEMP              0 ****  ****    0 ROOT
