@<TRIPOS>MOLECULE
N7R
   67    71     1     0     0
SMALL
No Charge or Current Charge


@<TRIPOS>ATOM
      1 F1          -7.8400    -3.7350    -0.9840 f          1 N7R      -0.159000
      2 C2          -7.0540    -3.1510    -0.0500 ca         1 N7R       0.136000
      3 C3          -7.3380    -3.3480     1.3090 ca         1 N7R      -0.126000
      4 C4          -6.5250    -2.7480     2.2850 ca         1 N7R      -0.098000
      5 C5          -5.4320    -1.9520     1.9000 ca         1 N7R      -0.104000
      6 C6          -5.1360    -1.7410     0.5340 ca         1 N7R      -0.096300
      7 C7          -3.9370    -0.8690     0.1360 c3         1 N7R      -0.035400
      8 C9          -2.6100    -1.5960     0.4660 c3         1 N7R      -0.069400
      9 C10         -1.3180    -0.8480     0.0590 c3         1 N7R      -0.082400
     10 C11         -1.0670     0.4850     0.8200 c3         1 N7R       0.038700
     11 N13          0.3760     0.8090     0.8620 ns         1 N7R      -0.481900
     12 C14          1.3000     0.2140     1.6880 c          1 N7R       0.647100
     13 O15          0.9770    -0.6500     2.4890 o          1 N7R      -0.635100
     14 N16          2.6320     0.6620     1.5610 n          1 N7R      -0.388800
     15 C17          3.1010     1.6670     0.5640 c6         1 N7R       0.093500
     16 C18          4.0570     1.0060    -0.4550 c6         1 N7R      -0.127900
     17 C19          5.2320     0.3110     0.2800 c6         1 N7R       0.142700
     18 C20          4.7360    -0.6640     1.3740 c6         1 N7R      -0.127900
     19 C21          3.7450     0.0430     2.3280 c6         1 N7R       0.093500
     20 N22          6.1970    -0.3290    -0.6380 n          1 N7R      -0.294000
     21 C23          5.8850    -1.2690    -1.6470 c          1 N7R       0.599000
     22 O24          4.8430    -1.8690    -1.8400 o          1 N7R      -0.551000
     23 N25          7.0250    -1.3570    -2.3880 ns         1 N7R      -0.586900
     24 C27          8.0270    -0.5430    -1.9260 ca         1 N7R       0.419900
     25 N28          9.2890    -0.6060    -2.3520 nb         1 N7R      -0.665000
     26 C29         10.1590     0.1230    -1.6000 ca         1 N7R       0.335900
     27 C30          9.7800     0.8170    -0.4180 ca         1 N7R      -0.165000
     28 C31          8.4320     0.7980     0.0170 ca         1 N7R      -0.079000
     29 C32          7.5330     0.1440    -0.8340 ca         1 N7R      -0.036400
     30 C33         -1.8600     1.6830     0.2070 c          1 N7R       0.550000
     31 O34         -1.2770     2.6830    -0.1980 o          1 N7R      -0.541000
     32 N35         -3.2610     1.5580     0.0550 n          1 N7R      -0.408800
     33 C36         -4.0530     2.6070    -0.6580 c3         1 N7R       0.032000
     34 C37         -4.4820     2.2260    -2.0940 c3         1 N7R       0.276000
     35 F38         -3.4310     1.7710    -2.8150 f          1 N7R      -0.114333
     36 F39         -5.4290     1.2600    -2.0790 f          1 N7R      -0.114333
     37 F40         -4.9950     3.2980    -2.7370 f          1 N7R      -0.114333
     38 C41         -4.0190     0.5260     0.7980 c3         1 N7R       0.111000
     39 C42         -5.9600    -2.3540    -0.4410 ca         1 N7R       0.140000
     40 F43         -5.7040    -2.1850    -1.7610 f          1 N7R      -0.157000
     41 H3          -8.1840    -3.9640     1.6040 ha         1 N7R       0.138000
     42 H4          -6.7410    -2.9010     3.3410 ha         1 N7R       0.125000
     43 H5          -4.8120    -1.5010     2.6720 ha         1 N7R       0.122000
     44 H7          -3.9530    -0.7040    -0.9480 hc         1 N7R       0.085700
     45 H9          -2.5670    -1.8140     1.5400 hc         1 N7R       0.053200
     46 H9A         -2.6160    -2.5700    -0.0410 hc         1 N7R       0.053200
     47 H10         -0.4800    -1.5300     0.2500 hc         1 N7R       0.059700
     48 H10A        -1.3160    -0.6620    -1.0220 hc         1 N7R       0.059700
     49 H11         -1.4090     0.3720     1.8570 h1         1 N7R       0.096700
     50 HN13         0.7130     1.5410     0.2520 hn         1 N7R       0.310500
     51 H17          2.2700     2.1440     0.0280 h1         1 N7R       0.060950
     52 H17A         3.6330     2.4690     1.0950 h1         1 N7R       0.060950
     53 H18          3.4950     0.2780    -1.0540 hc         1 N7R       0.070700
     54 H18A         4.4430     1.7620    -1.1510 hc         1 N7R       0.070700
     55 H19          5.7760     1.1100     0.8040 h1         1 N7R       0.051700
     56 H20          4.2400    -1.5270     0.9100 hc         1 N7R       0.070700
     57 H20A         5.5880    -1.0560     1.9450 hc         1 N7R       0.070700
     58 H21          4.2710     0.8290     2.8900 h1         1 N7R       0.060950
     59 H21A         3.3660    -0.6800     3.0640 h1         1 N7R       0.060950
     60 HN25         7.1350    -1.9790    -3.1760 hn         1 N7R       0.479000
     61 H29         11.1990     0.1180    -1.9250 h4         1 N7R       0.026100
     62 H30         10.5370     1.3340     0.1660 ha         1 N7R       0.127000
     63 H31          8.1210     1.2540     0.9530 ha         1 N7R       0.127000
     64 H36         -4.9570     2.8340    -0.0770 h1         1 N7R       0.094700
     65 H36A        -3.4830     3.5440    -0.7070 h1         1 N7R       0.094700
     66 H41         -5.0750     0.8260     0.8300 h1         1 N7R       0.058200
     67 H41A        -3.6730     0.4790     1.8380 h1         1 N7R       0.058200
@<TRIPOS>BOND
     1     1     2 1   
     2     2     3 ar  
     3     2    39 ar  
     4     3     4 ar  
     5     3    41 1   
     6     4     5 ar  
     7     4    42 1   
     8     5     6 ar  
     9     5    43 1   
    10     6     7 1   
    11     6    39 ar  
    12     7     8 1   
    13     7    38 1   
    14     7    44 1   
    15     8     9 1   
    16     8    45 1   
    17     8    46 1   
    18     9    10 1   
    19     9    47 1   
    20     9    48 1   
    21    10    11 1   
    22    10    30 1   
    23    10    49 1   
    24    11    12 1   
    25    11    50 1   
    26    12    13 2   
    27    12    14 1   
    28    14    15 1   
    29    14    19 1   
    30    15    16 1   
    31    15    51 1   
    32    15    52 1   
    33    16    17 1   
    34    16    53 1   
    35    16    54 1   
    36    17    18 1   
    37    17    20 1   
    38    17    55 1   
    39    18    19 1   
    40    18    56 1   
    41    18    57 1   
    42    19    58 1   
    43    19    59 1   
    44    20    21 1   
    45    20    29 1   
    46    21    22 2   
    47    21    23 1   
    48    23    24 1   
    49    23    60 1   
    50    24    25 ar  
    51    24    29 ar  
    52    25    26 ar  
    53    26    27 ar  
    54    26    61 1   
    55    27    28 ar  
    56    27    62 1   
    57    28    29 ar  
    58    28    63 1   
    59    30    31 2   
    60    30    32 1   
    61    32    33 1   
    62    32    38 1   
    63    33    34 1   
    64    33    64 1   
    65    33    65 1   
    66    34    35 1   
    67    34    36 1   
    68    34    37 1   
    69    38    66 1   
    70    38    67 1   
    71    39    40 1   
@<TRIPOS>SUBSTRUCTURE
     1 N7R         1 TEMP              0 ****  ****    0 ROOT
