@<TRIPOS>MOLECULE
N7S
   37    37     1     0     0
SMALL
No Charge or Current Charge


@<TRIPOS>ATOM
      1 CAA        -26.3180     4.6050    15.4440 ca         1 N7S      -0.175000
      2 CAB        -25.3140     4.6460    14.4660 ca         1 N7S       0.230100
      3 CAC        -24.3660     3.5880    14.3710 ca         1 N7S      -0.152000
      4 CAD        -24.4690     2.5140    15.2810 ca         1 N7S      -0.005000
      5 CAE        -25.4810     2.4800    16.2600 ca         1 N7S      -0.312500
      6 CAF        -26.4100     3.5320    16.3410 ca         1 N7S       0.014000
      7 CAM        -22.8450     4.2910    12.3920 c          1 N7S       0.664100
      8 CAO        -21.0520     4.4210    10.6270 c3         1 N7S       0.108000
      9 CAP        -19.5550     4.6910    10.9020 c3         1 N7S      -0.096400
     10 CAQ        -19.2450     5.8780    11.8520 c3         1 N7S      -0.081400
     11 CAS        -19.6030     5.6440    13.3350 c3         1 N7S       0.167600
     12 NAJ        -26.4690     0.0320    16.5370 n8         1 N7S      -1.002100
     13 NAL        -23.2860     3.4890    13.4310 ns         1 N7S      -0.157000
     14 NAN        -21.7370     3.7830    11.7560 ns         1 N7S      -0.504900
     15 OAH        -24.2720     0.4660    17.5600 o          1 N7S      -0.548500
     16 OAI        -26.4450     1.4400    18.5270 o          1 N7S      -0.548500
     17 OAK        -25.3060     5.7290    13.6420 oh         1 N7S      -0.565100
     18 OAR        -23.3700     5.3440    12.0620 o          1 N7S      -0.660100
     19 OAT        -19.1140     6.7320    14.1230 oh         1 N7S      -0.658000
     20 SAG        -25.5810     1.0980    17.3990 sy         1 N7S       1.134600
     21 H1         -27.0370     5.4170    15.5090 ha         1 N7S       0.137000
     22 H2         -23.7530     1.6940    15.2230 ha         1 N7S       0.126000
     23 H3         -27.1990     3.5270    17.0930 ha         1 N7S       0.142000
     24 H4         -21.5500     5.3620    10.3550 h1         1 N7S       0.064200
     25 H5         -21.1350     3.7470     9.7640 h1         1 N7S       0.064200
     26 H6         -19.0780     3.7780    11.2790 hc         1 N7S       0.047200
     27 H7         -19.0780     4.9070     9.9380 hc         1 N7S       0.047200
     28 H8         -18.1700     6.0890    11.7880 hc         1 N7S       0.060700
     29 H9         -19.7610     6.7770    11.4930 hc         1 N7S       0.060700
     30 H10        -20.6900     5.5640    13.4480 h1         1 N7S       0.010700
     31 H11        -19.1520     4.7010    13.6730 h1         1 N7S       0.010700
     32 H12        -27.2170    -0.1700    17.1960 hn         1 N7S       0.471000
     33 H13        -26.9090     0.6320    15.8450 hn         1 N7S       0.471000
     34 H14        -22.7290     2.6540    13.5560 hn         1 N7S       0.148000
     35 H15        -21.3790     2.8980    12.0940 hn         1 N7S       0.312500
     36 H16        -24.5510     5.6180    12.9950 ho         1 N7S       0.531000
     37 H17        -19.3530     6.5390    15.0570 ho         1 N7S       0.445000
@<TRIPOS>BOND
     1     1     2 ar  
     2     1     6 ar  
     3     1    21 1   
     4     2     3 ar  
     5     2    17 1   
     6     3     4 ar  
     7     3    13 1   
     8     4     5 ar  
     9     4    22 1   
    10     5     6 ar  
    11     5    20 1   
    12     6    23 1   
    13     7    13 1   
    14     7    14 1   
    15     7    18 2   
    16     8     9 1   
    17     8    14 1   
    18     8    24 1   
    19     8    25 1   
    20     9    10 1   
    21     9    26 1   
    22     9    27 1   
    23    10    11 1   
    24    10    28 1   
    25    10    29 1   
    26    11    19 1   
    27    11    30 1   
    28    11    31 1   
    29    12    20 1   
    30    12    32 1   
    31    12    33 1   
    32    13    34 1   
    33    14    35 1   
    34    15    20 2   
    35    16    20 2   
    36    17    36 1   
    37    19    37 1   
@<TRIPOS>SUBSTRUCTURE
     1 N7S         1 TEMP              0 ****  ****    0 ROOT
