@<TRIPOS>MOLECULE
N7S
   37    37     1     0     0
SMALL
bcc


@<TRIPOS>ATOM
      1 CAA        -26.1030     4.8130    15.5620 ca         1 N7S      -0.193000
      2 CAB        -24.9850     4.8340    14.7280 ca         1 N7S       0.230100
      3 CAC        -24.1880     3.6710    14.6270 ca         1 N7S      -0.059400
      4 CAD        -24.5410     2.5480    15.3600 ca         1 N7S      -0.023000
      5 CAE        -25.6480     2.5630    16.1960 ca         1 N7S      -0.312500
      6 CAF        -26.4370     3.6980    16.3050 ca         1 N7S      -0.004000
      7 CAM        -22.7670     4.0960    12.6410 c          1 N7S       0.798100
      8 CAO        -21.1690     4.1400    10.7670 c3         1 N7S       0.108000
      9 CAP        -19.7630     4.7230    10.8390 c3         1 N7S      -0.096400
     10 CAQ        -19.6050     5.9600    11.7260 c3         1 N7S      -0.081400
     11 CAS        -19.3180     5.6450    13.1840 c3         1 N7S       0.144400
     12 NAJ        -26.5690     0.0960    15.9670 n8         1 N7S      -0.891700
     13 NAL        -22.9850     3.6100    13.8990 ns         1 N7S      -0.483100
     14 NAN        -21.6560     3.6510    12.0400 ns         1 N7S      -0.571900
     15 OAH        -24.7940     0.5280    17.6430 o          1 N7S      -0.619300
     16 OAI        -27.0520     1.4850    18.1080 o          1 N7S      -0.619300
     17 OAK        -24.7060     5.9660    14.0870 oh         1 N7S      -0.526100
     18 OAR        -23.5390     4.9100    12.1160 o          1 N7S      -0.660100
     19 OAT        -19.0900     6.8590    13.8690 oh         1 N7S      -0.595800
     20 SAG        -26.0230     1.1260    17.1400 sy         1 N7S       1.276200
     21 H1         -26.7050     5.7090    15.6340 ha         1 N7S       0.155000
     22 H2         -23.9280     1.6580    15.2810 ha         1 N7S       0.144000
     23 H3         -27.3020     3.7220    16.9530 ha         1 N7S       0.160000
     24 H4         -21.8630     4.8970    10.4070 h1         1 N7S       0.064200
     25 H5         -21.1840     3.3220    10.0430 h1         1 N7S       0.064200
     26 H6         -19.0550     3.9450    11.1430 hc         1 N7S       0.047200
     27 H7         -19.4900     4.9820     9.8130 hc         1 N7S       0.047200
     28 H8         -18.7730     6.5580    11.3440 hc         1 N7S       0.060700
     29 H9         -20.4980     6.5890    11.6510 hc         1 N7S       0.060700
     30 H10        -20.1520     5.0940    13.6320 h1         1 N7S       0.010700
     31 H11        -18.4410     4.9850    13.2370 h1         1 N7S       0.010700
     32 H12        -26.6020    -0.8620    16.3030 hn         1 N7S       0.415800
     33 H13        -27.4760     0.3670    15.6010 hn         1 N7S       0.415800
     34 H14        -22.3230     2.9320    14.2480 hn         1 N7S       0.314500
     35 H15        -21.1170     2.9230    12.4820 hn         1 N7S       0.312500
     36 H16        -24.2200     5.7380    13.2450 ho         1 N7S       0.492000
     37 H17        -18.9150     6.6530    14.7910 ho         1 N7S       0.406000
@<TRIPOS>BOND
     1     1     2 ar  
     2     1     6 ar  
     3     1    21 1   
     4     2     3 ar  
     5     2    17 1   
     6     3     4 ar  
     7     3    13 1   
     8     4     5 ar  
     9     4    22 1   
    10     5     6 ar  
    11     5    20 1   
    12     6    23 1   
    13     7    13 1   
    14     7    14 1   
    15     7    18 2   
    16     8     9 1   
    17     8    14 1   
    18     8    24 1   
    19     8    25 1   
    20     9    10 1   
    21     9    26 1   
    22     9    27 1   
    23    10    11 1   
    24    10    28 1   
    25    10    29 1   
    26    11    19 1   
    27    11    30 1   
    28    11    31 1   
    29    12    20 1   
    30    12    32 1   
    31    12    33 1   
    32    13    34 1   
    33    14    35 1   
    34    15    20 2   
    35    16    20 2   
    36    17    36 1   
    37    19    37 1   
@<TRIPOS>SUBSTRUCTURE
     1 N7S         1 TEMP              0 ****  ****    0 ROOT
