@<TRIPOS>MOLECULE
N7T
   38    37     1     0     0
SMALL
No Charge or Current Charge


@<TRIPOS>ATOM
      1 OAN          6.2260    -0.5970     2.0520 oh         1 N7T      -0.717000
      2 CAM          5.2890     0.3740     1.5420 c3         1 N7T       0.119600
      3 CAL          4.4480    -0.2610     0.4020 c3         1 N7T       0.140300
      4 OAT          3.9970    -1.5370     0.8840 oh         1 N7T      -0.699000
      5 CAK          3.2360     0.6200    -0.0370 c3         1 N7T       0.121300
      6 OAS          3.6810     1.9090    -0.4740 oh         1 N7T      -0.705000
      7 CAJ          2.4440     0.0190    -1.2340 c3         1 N7T       0.024300
      8 OAR          3.1960     0.2810    -2.4670 oh         1 N7T      -0.734000
      9 CAI          0.9690     0.5390    -1.2850 c          1 N7T       0.549100
     10 OAQ          0.5260     1.1290    -2.2700 o          1 N7T      -0.515100
     11 CAH          0.0810     0.2390    -0.0370 c3         1 N7T       0.089800
     12 N           -1.3580    -0.0350    -0.3460 n7         1 N7T      -0.809400
     13 CA          -2.2570    -0.2150     0.8440 c3         1 N7T       0.030500
     14 C           -1.8980    -1.4490     1.7760 c          1 N7T       0.718000
     15 O           -2.2710    -2.5720     1.4550 o          1 N7T      -0.744500
     16 CB          -3.7360    -0.2680     0.3690 c3         1 N7T      -0.047400
     17 CG          -4.2490     1.0430    -0.2890 c3         1 N7T      -0.205400
     18 CD          -5.7510     0.9160    -0.6100 c          1 N7T       0.716000
     19 OE1         -6.0750     0.4580    -1.6950 o          1 N7T      -0.760000
     20 OE2         -6.5550     1.2320     0.2540 o          1 N7T      -0.760000
     21 OXT         -1.2750    -1.2320     2.8080 o          1 N7T      -0.744500
     22 H1           6.8040    -0.1300     2.7020 ho         1 N7T       0.491000
     23 H2           4.6200     0.7160     2.3440 h1         1 N7T       0.030200
     24 H3           5.8210     1.2530     1.1530 h1         1 N7T       0.030200
     25 H4           5.1080    -0.3990    -0.4660 h1         1 N7T       0.088700
     26 H5           4.7180    -1.7990     1.5090 ho         1 N7T       0.495000
     27 H6           2.5760     0.7210     0.8370 h1         1 N7T       0.084700
     28 H7           3.7640     1.7740    -1.4540 ho         1 N7T       0.503000
     29 H8           2.3520    -1.0640    -1.0720 h1         1 N7T       0.087700
     30 H9           2.6130     0.0450    -3.2320 ho         1 N7T       0.523000
     31 H10          0.5240    -0.6210     0.4840 h1         1 N7T       0.045200
     32 H11          0.1740     1.1040     0.6330 h1         1 N7T       0.045200
     33 H12         -1.7230     0.7510    -0.8980 hn         1 N7T       0.393000
     34 H14         -2.1660     0.6820     1.4730 h1         1 N7T      -0.007300
     35 H15         -3.8680    -1.1050    -0.3290 hc         1 N7T       0.057200
     36 H16         -4.3670    -0.4880     1.2400 hc         1 N7T       0.057200
     37 H17         -4.0810     1.8350     0.4510 hc         1 N7T       0.003700
     38 H18         -3.6710     1.1730    -1.2130 hc         1 N7T       0.003700
@<TRIPOS>BOND
     1     1     2 1   
     2     1    22 1   
     3     2     3 1   
     4     2    23 1   
     5     2    24 1   
     6     3     4 1   
     7     3     5 1   
     8     3    25 1   
     9     4    26 1   
    10     5     6 1   
    11     5     7 1   
    12     5    27 1   
    13     6    28 1   
    14     7     8 1   
    15     7     9 1   
    16     7    29 1   
    17     8    30 1   
    18     9    10 2   
    19     9    11 1   
    20    11    12 1   
    21    11    31 1   
    22    11    32 1   
    23    12    13 1   
    24    12    33 1   
    25    13    14 1   
    26    13    16 1   
    27    13    34 1   
    28    14    15 1   
    29    14    21 1   
    30    16    17 1   
    31    16    35 1   
    32    16    36 1   
    33    17    18 1   
    34    17    37 1   
    35    17    38 1   
    36    18    19 1   
    37    18    20 1   
@<TRIPOS>SUBSTRUCTURE
     1 N7T         1 TEMP              0 ****  ****    0 ROOT
