@<TRIPOS>MOLECULE
N7T
   38    37     1     0     0
SMALL
bcc


@<TRIPOS>ATOM
      1 OAN          6.1180     1.4270     1.5720 oh         1 N7T      -0.594800
      2 CAM          4.7400     1.4760     1.2840 c3         1 N7T       0.096400
      3 CAL          4.3890     0.3050     0.3790 c3         1 N7T       0.117100
      4 OAT          4.6860    -0.9310     0.9850 oh         1 N7T      -0.576800
      5 CAK          2.9120     0.3720    -0.0440 c3         1 N7T       0.098100
      6 OAS          2.6180     1.5650    -0.7310 oh         1 N7T      -0.582800
      7 CAJ          2.5030    -0.8500    -0.8870 c3         1 N7T       0.001100
      8 OAR          3.2930    -0.9320    -2.0390 oh         1 N7T      -0.611800
      9 CAI          1.0340    -0.7240    -1.2580 c          1 N7T       0.549100
     10 OAQ          0.7270    -0.4540    -2.3960 o          1 N7T      -0.515100
     11 CAH          0.0340    -0.9860    -0.1700 c3         1 N7T       0.089800
     12 N           -1.2860    -0.5210    -0.4920 n7         1 N7T      -0.754200
     13 CA          -2.2650    -0.8110     0.5410 c3         1 N7T       0.030500
     14 C           -2.6010    -2.3180     0.6390 c          1 N7T       0.928600
     15 O           -2.2590    -3.0670    -0.2960 o          1 N7T      -0.849800
     16 CB          -3.5510    -0.0220     0.2770 c3         1 N7T      -0.047400
     17 CG          -3.3970     1.4850     0.4210 c3         1 N7T      -0.205400
     18 CD          -4.6870     2.3120     0.2550 c          1 N7T       0.926600
     19 OE1         -4.5430     3.5520     0.2850 o          1 N7T      -0.865300
     20 OE2         -5.7620     1.6970     0.1140 o          1 N7T      -0.865300
     21 OXT         -3.2220    -2.6540     1.6690 o          1 N7T      -0.849800
     22 H1           6.3300     2.1830     2.1270 ho         1 N7T       0.392000
     23 H2           4.1320     1.4120     2.2000 h1         1 N7T       0.030200
     24 H3           4.4640     2.4120     0.7870 h1         1 N7T       0.030200
     25 H4           5.0160     0.3550    -0.5180 h1         1 N7T       0.088700
     26 H5           4.2310    -0.9770     1.8330 ho         1 N7T       0.396000
     27 H6           2.2980     0.3880     0.8630 h1         1 N7T       0.084700
     28 H7           3.1290     1.5770    -1.5490 ho         1 N7T       0.404000
     29 H8           2.6240    -1.7540    -0.2770 h1         1 N7T       0.087700
     30 H9           2.7260    -0.7240    -2.7950 ho         1 N7T       0.424000
     31 H10          0.0200    -2.0760    -0.0500 h1         1 N7T       0.045200
     32 H11          0.4280    -0.6040     0.7860 h1         1 N7T       0.045200
     33 H12         -1.2440     0.4810    -0.6280 hn         1 N7T       0.337800
     34 H14         -1.8950    -0.5070     1.5380 h1         1 N7T      -0.007300
     35 H15         -3.9210    -0.2720    -0.7220 hc         1 N7T       0.057200
     36 H16         -4.3080    -0.3680     0.9820 hc         1 N7T       0.057200
     37 H17         -2.9790     1.7090     1.4100 hc         1 N7T       0.003700
     38 H18         -2.6650     1.8820    -0.2900 hc         1 N7T       0.003700
@<TRIPOS>BOND
     1     1     2 1   
     2     1    22 1   
     3     2     3 1   
     4     2    23 1   
     5     2    24 1   
     6     3     4 1   
     7     3     5 1   
     8     3    25 1   
     9     4    26 1   
    10     5     6 1   
    11     5     7 1   
    12     5    27 1   
    13     6    28 1   
    14     7     8 1   
    15     7     9 1   
    16     7    29 1   
    17     8    30 1   
    18     9    10 2   
    19     9    11 1   
    20    11    12 1   
    21    11    31 1   
    22    11    32 1   
    23    12    13 1   
    24    12    33 1   
    25    13    14 1   
    26    13    16 1   
    27    13    34 1   
    28    14    15 1   
    29    14    21 1   
    30    16    17 1   
    31    16    35 1   
    32    16    36 1   
    33    17    18 1   
    34    17    37 1   
    35    17    38 1   
    36    18    19 1   
    37    18    20 1   
@<TRIPOS>SUBSTRUCTURE
     1 N7T         1 TEMP              0 ****  ****    0 ROOT
