@<TRIPOS>MOLECULE
N7U
   40    43     1     0     0
SMALL
No Charge or Current Charge


@<TRIPOS>ATOM
      1 C10         26.8470    10.4610   -23.1270 cc         1 N7U       0.093900
      2 C13         27.6940     7.4420   -22.9710 ca         1 N7U      -0.080500
      3 C15         26.9850     5.1200   -23.1630 ca         1 N7U      -0.114000
      4 C17         25.3570     6.9190   -23.3500 ca         1 N7U      -0.080500
      5 C20         23.5750    11.9660   -23.0560 cc         1 N7U      -0.091000
      6 C21         23.8540    13.3110   -23.0160 cd         1 N7U      -0.111000
      7 C22         25.2340    13.7410   -23.0300 cd         1 N7U      -0.188000
      8 C26         31.4340    10.7390   -24.9770 ca         1 N7U      -0.047000
      9 C05         31.1060    10.0410   -26.1570 ca         1 N7U      -0.114500
     10 C06         29.8000     9.5370   -26.3180 ca         1 N7U      -0.047000
     11 C07         28.8380     9.7250   -25.3100 ca         1 N7U      -0.198500
     12 C08         29.1710    10.4160   -24.1320 ca         1 N7U       0.216000
     13 C11         26.0080     9.3420   -23.1660 cd         1 N7U       0.111400
     14 C12         26.3690     7.8960   -23.1750 ca         1 N7U      -0.004800
     15 C14         27.9990     6.0700   -22.9700 ca         1 N7U      -0.118500
     16 C16         25.6630     5.5470   -23.3500 ca         1 N7U      -0.118500
     17 C19         24.6620    11.0510   -23.0850 cc         1 N7U      -0.085000
     18 C23         26.3100    12.8520   -23.0650 cc         1 N7U      -0.061000
     19 C25         30.4690    10.9230   -23.9700 ca         1 N7U      -0.198500
     20 N09         28.2340    10.6130   -23.1210 nu         1 N7U      -0.867000
     21 N18         24.6630     9.7340   -23.1440 nd         1 N7U      -0.309600
     22 N24         25.9470    11.4970   -23.0390 na         1 N7U       0.111100
     23 O01         32.3960    11.0430   -28.3110 o          1 N7U      -0.922500
     24 O03         33.7130     9.6190   -26.8490 o          1 N7U      -0.922500
     25 O04         32.0160     8.6370   -28.3270 o          1 N7U      -0.922500
     26 H1          28.5020     8.1400   -22.7940 ha         1 N7U       0.124000
     27 H2          27.2230     4.0590   -23.1610 ha         1 N7U       0.098000
     28 H3          24.3220     7.2160   -23.5000 ha         1 N7U       0.124000
     29 H4          22.5540    11.5960   -23.0720 ha         1 N7U       0.124000
     30 H5          23.0490    14.0390   -22.9930 ha         1 N7U       0.103000
     31 H6          25.4450    14.8050   -23.0220 ha         1 N7U       0.117000
     32 H7          32.4380    11.1370   -24.8440 ha         1 N7U       0.124500
     33 H8          29.5320     9.0020   -27.2270 ha         1 N7U       0.124500
     34 H9          27.8360     9.3300   -25.4520 ha         1 N7U       0.067500
     35 H10         29.0240     5.7430   -22.8130 ha         1 N7U       0.103500
     36 H11         24.8720     4.8150   -23.4940 ha         1 N7U       0.103500
     37 H12         27.3590    13.1160   -23.0970 h4         1 N7U       0.165000
     38 H13         30.7380    11.4620   -23.0660 ha         1 N7U       0.067500
     39 H14         28.5670    11.2480   -22.3930 hn         1 N7U       0.472000
     40 P02         32.3720     9.8080   -27.4740 p5         1 N7U       1.153000
@<TRIPOS>BOND
     1     1    13 2   
     2     1    20 1   
     3     1    22 1   
     4     2    14 ar  
     5     2    15 ar  
     6     2    26 1   
     7     3    15 ar  
     8     3    16 ar  
     9     3    27 1   
    10     4    14 ar  
    11     4    16 ar  
    12     4    28 1   
    13     5     6 2   
    14     5    17 1   
    15     5    29 1   
    16     6     7 1   
    17     6    30 1   
    18     7    18 2   
    19     7    31 1   
    20     8     9 ar  
    21     8    19 ar  
    22     8    32 1   
    23     9    10 ar  
    24     9    40 1   
    25    10    11 ar  
    26    10    33 1   
    27    11    12 ar  
    28    11    34 1   
    29    12    19 ar  
    30    12    20 1   
    31    13    14 1   
    32    13    21 1   
    33    15    35 1   
    34    16    36 1   
    35    17    21 2   
    36    17    22 1   
    37    18    22 1   
    38    18    37 1   
    39    19    38 1   
    40    20    39 1   
    41    23    40 1   
    42    24    40 1   
    43    25    40 1   
@<TRIPOS>SUBSTRUCTURE
     1 N7U         1 TEMP              0 ****  ****    0 ROOT
