@<TRIPOS>MOLECULE
N7U
   40    43     1     0     0
SMALL
abcg2


@<TRIPOS>ATOM
      1 C10         26.8850    10.4740   -23.0040 cc         1 N7U       0.093900
      2 C13         27.7800     7.5350   -22.6940 ca         1 N7U      -0.080500
      3 C15         27.2430     5.2280   -23.1580 ca         1 N7U      -0.114000
      4 C17         25.5990     6.9520   -23.5290 ca         1 N7U      -0.080500
      5 C20         23.6370    11.9180   -23.2660 cc         1 N7U      -0.091000
      6 C21         23.8810    13.2660   -23.2440 cd         1 N7U      -0.111000
      7 C22         25.2090    13.7570   -23.1460 cd         1 N7U      -0.188000
      8 C26         31.3690    10.2310   -24.8680 ca         1 N7U      -0.047000
      9 C05         30.9140    10.0340   -26.1770 ca         1 N7U      -0.114500
     10 C06         29.5270    10.0460   -26.3620 ca         1 N7U      -0.047000
     11 C07         28.6360    10.2490   -25.3130 ca         1 N7U      -0.198500
     12 C08         29.1160    10.4470   -24.0150 ca         1 N7U       0.216000
     13 C11         26.0840     9.3420   -23.0880 cd         1 N7U       0.111400
     14 C12         26.5000     7.9360   -23.0990 ca         1 N7U      -0.004800
     15 C14         28.1450     6.1950   -22.7240 ca         1 N7U      -0.118500
     16 C16         25.9670     5.6140   -23.5590 ca         1 N7U      -0.118500
     17 C19         24.7210    11.0220   -23.1900 cc         1 N7U      -0.085000
     18 C23         26.2580    12.8920   -23.0640 cc         1 N7U      -0.061000
     19 C25         30.4980    10.4310   -23.8040 ca         1 N7U      -0.198500
     20 N09         28.2540    10.6830   -22.9380 nu         1 N7U      -0.867000
     21 N18         24.7620     9.6920   -23.2030 nd         1 N7U      -0.309600
     22 N24         26.0070    11.5490   -23.0790 na         1 N7U       0.111100
     23 O01         31.5000    10.4700   -28.7800 o          1 N7U      -0.922500
     24 O03         33.4370    10.2460   -27.1190 o          1 N7U      -0.922500
     25 O04         32.0570     8.1870   -27.7660 o          1 N7U      -0.922500
     26 H1          28.4910     8.2700   -22.3470 ha         1 N7U       0.124000
     27 H2          27.5310     4.1850   -23.1830 ha         1 N7U       0.098000
     28 H3          24.6080     7.2510   -23.8420 ha         1 N7U       0.124000
     29 H4          22.6360    11.5160   -23.3440 ha         1 N7U       0.124000
     30 H5          23.0590    13.9660   -23.3030 ha         1 N7U       0.103000
     31 H6          25.4030    14.8200   -23.1370 ha         1 N7U       0.117000
     32 H7          32.4360    10.2350   -24.6820 ha         1 N7U       0.124500
     33 H8          29.1270     9.9050   -27.3590 ha         1 N7U       0.124500
     34 H9          27.5700    10.2570   -25.4990 ha         1 N7U       0.067500
     35 H10         29.1390     5.9060   -22.4040 ha         1 N7U       0.103500
     36 H11         25.2570     4.8700   -23.8990 ha         1 N7U       0.103500
     37 H12         27.2950    13.1830   -22.9870 h4         1 N7U       0.165000
     38 H13         30.8830    10.5810   -22.8010 ha         1 N7U       0.067500
     39 H14         28.6810    10.7090   -22.0240 hn         1 N7U       0.472000
     40 P02         32.0770     9.7100   -27.5810 p5         1 N7U       1.153000
@<TRIPOS>BOND
     1     1    13 2   
     2     1    20 1   
     3     1    22 1   
     4     2    14 ar  
     5     2    15 ar  
     6     2    26 1   
     7     3    15 ar  
     8     3    16 ar  
     9     3    27 1   
    10     4    14 ar  
    11     4    16 ar  
    12     4    28 1   
    13     5     6 2   
    14     5    17 1   
    15     5    29 1   
    16     6     7 1   
    17     6    30 1   
    18     7    18 2   
    19     7    31 1   
    20     8     9 ar  
    21     8    19 ar  
    22     8    32 1   
    23     9    10 ar  
    24     9    40 1   
    25    10    11 ar  
    26    10    33 1   
    27    11    12 ar  
    28    11    34 1   
    29    12    19 ar  
    30    12    20 1   
    31    13    14 1   
    32    13    21 1   
    33    15    35 1   
    34    16    36 1   
    35    17    21 2   
    36    17    22 1   
    37    18    22 1   
    38    18    37 1   
    39    19    38 1   
    40    20    39 1   
    41    23    40 1   
    42    24    40 1   
    43    25    40 1   
@<TRIPOS>SUBSTRUCTURE
     1 N7U         1 TEMP              0 ****  ****    0 ROOT
