@<TRIPOS>MOLECULE
N7V
   38    40     1     0     0
SMALL
abcg2


@<TRIPOS>ATOM
      1 C01         -3.5160     4.4120    14.8330 ca         1 N7V      -0.029400
      2 C02         -4.7100     4.9770    15.2700 ca         1 N7V       0.104100
      3 C03         -5.7790     4.2350    15.7000 ca         1 N7V      -0.102000
      4 C04         -5.6230     2.8500    15.6830 ca         1 N7V      -0.016000
      5 C05         -4.4340     2.2880    15.2450 ca         1 N7V      -0.266500
      6 C06         -3.3460     3.0470    14.8110 ca         1 N7V       0.003000
      7 N07         -2.7060     5.4770    14.4820 n          1 N7V      -0.321000
      8 C08         -3.3740     6.6450    14.7190 c          1 N7V       0.686100
      9 O09         -4.6120     6.3270    15.1930 os         1 N7V      -0.279200
     10 S10         -4.2580     0.5260    15.2260 sy         1 N7V       1.130600
     11 O11         -2.9050     0.1730    15.6290 o          1 N7V      -0.540000
     12 O12         -5.3740    -0.0430    15.9690 o          1 N7V      -0.540000
     13 N13         -4.3400     0.2190    13.6070 n8         1 N7V      -1.007100
     14 O14         -3.0070     7.7750    14.5600 o          1 N7V      -0.494000
     15 C15         -1.3180     5.4120    14.0460 c3         1 N7V       0.178000
     16 C16         -1.2100     4.4910    12.8460 ca         1 N7V      -0.065300
     17 C17         -0.4070     5.0760    15.2180 c3         1 N7V      -0.112100
     18 C18         -0.2180     3.5210    12.7530 ca         1 N7V      -0.108000
     19 C19         -0.1340     2.6930    11.6450 ca         1 N7V      -0.044500
     20 C20         -1.0570     2.8440    10.6250 ca         1 N7V      -0.170200
     21 C21         -2.0540     3.8090    10.6860 ca         1 N7V      -0.044500
     22 C22         -2.1200     4.6250    11.7980 ca         1 N7V      -0.108000
     23 N23         -0.9820     1.9710     9.4630 no         1 N7V       0.693200
     24 O24         -1.8120     2.1060     8.5960 o          1 N7V      -0.395000
     25 O25         -0.0930     1.1530     9.4250 o          1 N7V      -0.395000
     26 H1          -6.6970     4.6930    16.0410 ha         1 N7V       0.147000
     27 H2          -2.4300     2.5830    14.4750 ha         1 N7V       0.150000
     28 H5          -3.9290    -0.6800    13.3770 hn         1 N7V       0.477500
     29 H6          -5.2840     0.2810    13.2410 hn         1 N7V       0.477500
     30 H7          -1.0710     6.4210    13.7040 h1         1 N7V       0.097700
     31 H8           0.6380     5.1360    14.9170 hc         1 N7V       0.056033
     32 H9          -0.5600     5.8000    16.0150 hc         1 N7V       0.056033
     33 H10         -0.5930     4.0790    15.6180 hc         1 N7V       0.056033
     34 H11          0.5060     3.3880    13.5440 ha         1 N7V       0.133500
     35 H12          0.6400     1.9410    11.5980 ha         1 N7V       0.155500
     36 H13         -2.7710     3.9310     9.8880 ha         1 N7V       0.155500
     37 H14         -2.8980     5.3760    11.8420 ha         1 N7V       0.133500
     38 H15         -6.4390     2.2250    16.0160 ha         1 N7V       0.148000
@<TRIPOS>BOND
     1     1     2 ar  
     2     1     6 ar  
     3     1     7 1   
     4     2     3 ar  
     5     2     9 1   
     6     3     4 ar  
     7     3    26 1   
     8     4     5 ar  
     9     4    38 1   
    10     5     6 ar  
    11     5    10 1   
    12     6    27 1   
    13     7     8 1   
    14     7    15 1   
    15     8     9 1   
    16     8    14 2   
    17    10    11 2   
    18    10    12 2   
    19    10    13 1   
    20    13    28 1   
    21    13    29 1   
    22    15    16 1   
    23    15    17 1   
    24    15    30 1   
    25    16    18 ar  
    26    16    22 ar  
    27    17    31 1   
    28    17    32 1   
    29    17    33 1   
    30    18    19 ar  
    31    18    34 1   
    32    19    20 ar  
    33    19    35 1   
    34    20    21 ar  
    35    20    23 1   
    36    21    22 ar  
    37    21    36 1   
    38    22    37 1   
    39    23    24 1   
    40    23    25 1   
@<TRIPOS>SUBSTRUCTURE
     1 N7V         1 TEMP              0 ****  ****    0 ROOT
