@<TRIPOS>MOLECULE
N7V
   38    40     1     0     0
SMALL
No Charge or Current Charge


@<TRIPOS>ATOM
      1 C01         -3.5310     4.4320    14.9580 ca         1 N7V      -0.029400
      2 C02         -4.7070     4.9950    15.3990 ca         1 N7V       0.104100
      3 C03         -5.7730     4.2260    15.8710 ca         1 N7V      -0.102000
      4 C04         -5.6220     2.8220    15.8540 ca         1 N7V      -0.016000
      5 C05         -4.4370     2.2300    15.3330 ca         1 N7V      -0.266500
      6 C06         -3.3840     3.0430    14.8430 ca         1 N7V       0.003000
      7 N07         -2.7770     5.5100    14.4360 n          1 N7V      -0.321000
      8 C08         -3.4750     6.7160    14.6270 c          1 N7V       0.686100
      9 O09         -4.6630     6.3520    15.2220 os         1 N7V      -0.279200
     10 S10         -4.2840     0.4430    15.2620 sy         1 N7V       1.130600
     11 O11         -2.8860     0.0440    15.1140 o          1 N7V      -0.540000
     12 O12         -5.1820    -0.1970    16.2190 o          1 N7V      -0.540000
     13 N13         -4.9420     0.0750    13.8170 n8         1 N7V      -1.007100
     14 O14         -3.1080     7.8480    14.3460 o          1 N7V      -0.494000
     15 C15         -1.3610     5.4440    14.0190 c3         1 N7V       0.178000
     16 C16         -1.1700     4.5320    12.7960 ca         1 N7V      -0.065300
     17 C17         -0.4480     5.1290    15.2250 c3         1 N7V      -0.112100
     18 C18         -0.3310     3.3940    12.8030 ca         1 N7V      -0.108000
     19 C19         -0.2000     2.5900    11.6570 ca         1 N7V      -0.044500
     20 C20         -0.9040     2.9080    10.4730 ca         1 N7V      -0.170200
     21 C21         -1.7400     4.0470    10.4620 ca         1 N7V      -0.044500
     22 C22         -1.8670     4.8450    11.6120 ca         1 N7V      -0.108000
     23 N23         -0.7660     2.0520     9.2500 no         1 N7V       0.693200
     24 O24         -1.4010     2.3720     8.2360 o          1 N7V      -0.395000
     25 O25         -0.0220     1.0640     9.3080 o          1 N7V      -0.395000
     26 H1          -6.6910     4.6930    16.2180 ha         1 N7V       0.147000
     27 H2          -2.4910     2.6080    14.4020 ha         1 N7V       0.150000
     28 H5          -4.1940    -0.4840    13.4130 hn         1 N7V       0.477500
     29 H6          -5.6120    -0.6380    14.0980 hn         1 N7V       0.477500
     30 H7          -1.0740     6.4500    13.6840 h1         1 N7V       0.097700
     31 H8           0.6080     5.1640    14.9320 hc         1 N7V       0.056033
     32 H9          -0.5990     5.8700    16.0190 hc         1 N7V       0.056033
     33 H10         -0.6660     4.1390    15.6420 hc         1 N7V       0.056033
     34 H11          0.2250     3.1100    13.6920 ha         1 N7V       0.133500
     35 H12          0.4530     1.7200    11.6990 ha         1 N7V       0.155500
     36 H13         -2.2980     4.3220     9.5680 ha         1 N7V       0.155500
     37 H14         -2.5180     5.7170    11.5810 ha         1 N7V       0.133500
     38 H15         -6.4370     2.1960    16.2150 ha         1 N7V       0.148000
@<TRIPOS>BOND
     1     1     2 ar  
     2     1     6 ar  
     3     1     7 1   
     4     2     3 ar  
     5     2     9 1   
     6     3     4 ar  
     7     3    26 1   
     8     4     5 ar  
     9     4    38 1   
    10     5     6 ar  
    11     5    10 1   
    12     6    27 1   
    13     7     8 1   
    14     7    15 1   
    15     8     9 1   
    16     8    14 2   
    17    10    11 2   
    18    10    12 2   
    19    10    13 1   
    20    13    28 1   
    21    13    29 1   
    22    15    16 1   
    23    15    17 1   
    24    15    30 1   
    25    16    18 ar  
    26    16    22 ar  
    27    17    31 1   
    28    17    32 1   
    29    17    33 1   
    30    18    19 ar  
    31    18    34 1   
    32    19    20 ar  
    33    19    35 1   
    34    20    21 ar  
    35    20    23 1   
    36    21    22 ar  
    37    21    36 1   
    38    22    37 1   
    39    23    24 1   
    40    23    25 1   
@<TRIPOS>SUBSTRUCTURE
     1 N7V         1 TEMP              0 ****  ****    0 ROOT
