@<TRIPOS>MOLECULE
N7W
   74    78     1     0     0
SMALL
No Charge or Current Charge


@<TRIPOS>ATOM
      1 C4         -41.2360    12.7150    -0.7280 ca         1 N7W       0.142500
      2 C5         -42.3310    11.8860    -0.6500 ca         1 N7W      -0.239800
      3 C6         -42.1320    10.5140    -0.4020 ca         1 N7W       0.434900
      4 N1         -40.8950    10.0520    -0.1380 nb         1 N7W      -0.288000
      5 N3         -39.9920    12.2690    -0.4820 nb         1 N7W      -0.220000
      6 C2         -39.8890    10.9560    -0.1730 ca         1 N7W       0.176900
      7 CAL        -43.0660    13.9660    -1.3680 cc         1 N7W      -0.146100
      8 CAM        -43.4920    12.7080    -0.9750 cd         1 N7W      -0.066400
      9 CAN        -44.8920    12.2450    -1.0430 ca         1 N7W      -0.006800
     10 CAO        -43.3010     8.2120    -0.4420 ca         1 N7W       0.289000
     11 CAP        -44.5520     7.6830    -0.0840 ca         1 N7W      -0.139000
     12 CAQ        -44.7660     6.2940    -0.0480 ca         1 N7W      -0.153000
     13 CAR        -43.7220     5.4090    -0.3940 ca         1 N7W       0.110100
     14 CAS        -42.4660     5.9410    -0.7550 ca         1 N7W       0.106000
     15 CAT        -42.2580     7.3310    -0.7810 ca         1 N7W      -0.092000
     16 CAU        -45.1780     3.3930    -0.2340 c3         1 N7W       0.107300
     17 CAV        -46.1240     3.7340    -1.3900 ca         1 N7W       0.301300
     18 CAW        -45.6630     3.7710    -2.7230 ca         1 N7W      -0.134000
     19 CAX        -46.5590     4.1010    -3.7530 ca         1 N7W      -0.073000
     20 CAY        -47.8910     4.3770    -3.4090 ca         1 N7W      -0.160000
     21 CAZ        -48.2770     4.3100    -2.0590 ca         1 N7W       0.334900
     22 CBA        -45.7290    12.6790    -2.0900 ca         1 N7W      -0.116000
     23 CBB        -47.0620    12.2200    -2.1890 ca         1 N7W      -0.017000
     24 CBC        -47.5660    11.3390    -1.2090 ca         1 N7W       0.055100
     25 CBD        -46.7530    10.9610    -0.1200 ca         1 N7W      -0.118000
     26 CBE        -45.4310    11.4220    -0.0370 ca         1 N7W      -0.138000
     27 CBF        -49.4260     9.8760    -0.4770 c3         1 N7W       0.161600
     28 CBG        -50.8270     9.4700    -1.0140 c3         1 N7W       0.141800
     29 CBH        -47.8150    13.4570    -4.3200 c          1 N7W       0.605100
     30 CBI        -49.0360    13.4890    -5.2500 c3         1 N7W      -0.157400
     31 CBJ        -49.8570    14.7860    -5.0730 c3         1 N7W      -0.077100
     32 CBK        -52.2570     8.7010    -2.8760 c3         1 N7W       0.139100
     33 CBL        -50.0640     7.6460    -2.5350 c3         1 N7W       0.139100
     34 NAC        -41.6740    13.9600    -1.1450 na         1 N7W      -0.310400
     35 NAD        -43.1730     9.6020    -0.4920 nu         1 N7W      -0.929900
     36 NAE        -47.4160     3.9940    -1.0640 nb         1 N7W      -0.675000
     37 NAF        -47.9370    12.5800    -3.2540 ns         1 N7W      -0.166000
     38 NAG        -50.8710     8.8810    -2.3880 n3         1 N7W      -0.726600
     39 OBM        -43.8910     4.0340    -0.4020 os         1 N7W      -0.323100
     40 OBN        -48.8600    10.8730    -1.3540 os         1 N7W      -0.360100
     41 OBO        -46.8240    14.1420    -4.5430 o          1 N7W      -0.594100
     42 Cl1        -41.1350     4.8740    -1.2080 cl         1 N7W      -0.186000
     43 H1         -38.8880    10.5810     0.0380 h5         1 N7W       0.048100
     44 H2         -43.6180    14.8330    -1.7250 h4         1 N7W       0.230000
     45 H3         -45.3690     8.3510     0.1750 ha         1 N7W       0.113000
     46 H4         -45.7460     5.9290     0.2480 ha         1 N7W       0.130000
     47 H5         -41.2930     7.7110    -1.0930 ha         1 N7W       0.170000
     48 H6         -45.6310     3.6820     0.7230 h1         1 N7W       0.076200
     49 H7         -45.0490     2.3040    -0.2110 h1         1 N7W       0.076200
     50 H8         -44.6230     3.5520    -2.9490 ha         1 N7W       0.141000
     51 H9         -46.2280     4.1410    -4.7900 ha         1 N7W       0.122000
     52 H10        -48.6210     4.6360    -4.1710 ha         1 N7W       0.124000
     53 H11        -49.3050     4.5160    -1.7650 h4         1 N7W       0.018100
     54 H12        -45.3100    13.3340    -2.8460 ha         1 N7W       0.143000
     55 H13        -47.1310    10.3190     0.6720 ha         1 N7W       0.122000
     56 H14        -44.8320    11.1610     0.8330 ha         1 N7W       0.125000
     57 H15        -48.7820     8.9890    -0.4250 h1         1 N7W       0.044200
     58 H16        -49.5350    10.2770     0.5390 h1         1 N7W       0.044200
     59 H17        -51.4570    10.3700    -0.9830 h1         1 N7W       0.047700
     60 H18        -51.2640     8.7610    -0.2980 h1         1 N7W       0.047700
     61 H19        -49.6940    12.6370    -5.0410 hc         1 N7W       0.056200
     62 H20        -48.6900    13.4420    -6.2890 hc         1 N7W       0.056200
     63 H21        -50.7220    14.7870    -5.7480 hc         1 N7W       0.041367
     64 H22        -50.2250    14.8760    -4.0440 hc         1 N7W       0.041367
     65 H23        -49.2450    15.6680    -5.3000 hc         1 N7W       0.041367
     66 H24        -52.8090     9.6500    -2.8390 h1         1 N7W       0.037700
     67 H25        -52.2620     8.3510    -3.9170 h1         1 N7W       0.037700
     68 H26        -52.7970     7.9660    -2.2630 h1         1 N7W       0.037700
     69 H27        -49.0040     7.8340    -2.3180 h1         1 N7W       0.037700
     70 H28        -50.4210     6.8600    -1.8560 h1         1 N7W       0.037700
     71 H29        -50.1240     7.2620    -3.5630 h1         1 N7W       0.037700
     72 H30        -41.0550    14.7500    -1.2980 hn         1 N7W       0.367000
     73 H31        -44.0620    10.0820    -0.6120 hn         1 N7W       0.509000
     74 H32        -48.8250    12.0960    -3.2170 hn         1 N7W       0.204000
@<TRIPOS>BOND
     1     1     2 ar  
     2     1     5 ar  
     3     1    34 1   
     4     2     3 ar  
     5     2     8 1   
     6     3     4 ar  
     7     3    35 1   
     8     4     6 ar  
     9     5     6 ar  
    10     6    43 1   
    11     7     8 2   
    12     7    34 1   
    13     7    44 1   
    14     8     9 1   
    15     9    22 ar  
    16     9    26 ar  
    17    10    11 ar  
    18    10    15 ar  
    19    10    35 1   
    20    11    12 ar  
    21    11    45 1   
    22    12    13 ar  
    23    12    46 1   
    24    13    14 ar  
    25    13    39 1   
    26    14    15 ar  
    27    14    42 1   
    28    15    47 1   
    29    16    17 1   
    30    16    39 1   
    31    16    48 1   
    32    16    49 1   
    33    17    18 ar  
    34    17    36 ar  
    35    18    19 ar  
    36    18    50 1   
    37    19    20 ar  
    38    19    51 1   
    39    20    21 ar  
    40    20    52 1   
    41    21    36 ar  
    42    21    53 1   
    43    22    23 ar  
    44    22    54 1   
    45    23    24 ar  
    46    23    37 1   
    47    24    25 ar  
    48    24    40 1   
    49    25    26 ar  
    50    25    55 1   
    51    26    56 1   
    52    27    28 1   
    53    27    40 1   
    54    27    57 1   
    55    27    58 1   
    56    28    38 1   
    57    28    59 1   
    58    28    60 1   
    59    29    30 1   
    60    29    37 1   
    61    29    41 2   
    62    30    31 1   
    63    30    61 1   
    64    30    62 1   
    65    31    63 1   
    66    31    64 1   
    67    31    65 1   
    68    32    38 1   
    69    32    66 1   
    70    32    67 1   
    71    32    68 1   
    72    33    38 1   
    73    33    69 1   
    74    33    70 1   
    75    33    71 1   
    76    34    72 1   
    77    35    73 1   
    78    37    74 1   
@<TRIPOS>SUBSTRUCTURE
     1 N7W         1 TEMP              0 ****  ****    0 ROOT
