@<TRIPOS>MOLECULE
N7W
   74    78     1     0     0
SMALL
abcg2


@<TRIPOS>ATOM
      1 C4         -41.5840    12.5030    -1.3770 ca         1 N7W       0.142500
      2 C5         -42.6810    11.6670    -1.1270 ca         1 N7W      -0.239800
      3 C6         -42.3640    10.2960    -1.0110 ca         1 N7W       0.434900
      4 N1         -41.0950     9.9100    -1.0710 nb         1 N7W      -0.288000
      5 N3         -40.3070    12.1220    -1.4520 nb         1 N7W      -0.220000
      6 C2         -40.1500    10.8290    -1.2760 ca         1 N7W       0.176900
      7 CAL        -43.4100    13.7620    -1.3920 cc         1 N7W      -0.146100
      8 CAM        -43.8540    12.4940    -1.1300 cd         1 N7W      -0.066400
      9 CAN        -45.2530    12.1130    -0.9010 ca         1 N7W      -0.006800
     10 CAO        -43.3090     8.0060    -0.6330 ca         1 N7W       0.289000
     11 CAP        -44.5170     7.3850    -0.3160 ca         1 N7W      -0.139000
     12 CAQ        -44.5920     6.0230    -0.0840 ca         1 N7W      -0.153000
     13 CAR        -43.4520     5.2280    -0.1560 ca         1 N7W       0.110100
     14 CAS        -42.2520     5.8560    -0.4810 ca         1 N7W       0.106000
     15 CAT        -42.1620     7.2170    -0.7170 ca         1 N7W      -0.092000
     16 CAU        -44.6200     3.2140     0.3060 c3         1 N7W       0.107300
     17 CAV        -45.5050     3.1320    -0.9130 ca         1 N7W       0.301300
     18 CAW        -44.9720     3.0300    -2.1930 ca         1 N7W      -0.134000
     19 CAX        -45.8430     2.9260    -3.2650 ca         1 N7W      -0.073000
     20 CAY        -47.2090     2.9180    -3.0230 ca         1 N7W      -0.160000
     21 CAZ        -47.6400     3.0170    -1.7100 ca         1 N7W       0.334900
     22 CBA        -46.2290    12.4860    -1.8230 ca         1 N7W      -0.116000
     23 CBB        -47.5690    12.1490    -1.6340 ca         1 N7W      -0.017000
     24 CBC        -47.9250    11.4110    -0.4950 ca         1 N7W       0.055100
     25 CBD        -46.9540    11.0280     0.4190 ca         1 N7W      -0.118000
     26 CBE        -45.6280    11.3860     0.2300 ca         1 N7W      -0.138000
     27 CBF        -49.6390     9.7580    -0.5360 c3         1 N7W       0.161600
     28 CBG        -50.8410     9.7550    -1.4560 c3         1 N7W       0.141800
     29 CBH        -48.6220    13.5590    -3.3490 c          1 N7W       0.605100
     30 CBI        -49.8430    13.5910    -4.2450 c3         1 N7W      -0.157400
     31 CBJ        -49.8720    14.7740    -5.1950 c3         1 N7W      -0.077100
     32 CBK        -51.8160    10.6310    -3.4570 c3         1 N7W       0.139100
     33 CBL        -49.7470     9.4480    -3.5900 c3         1 N7W       0.139100
     34 NAC        -42.0500    13.7620    -1.5350 na         1 N7W      -0.310400
     35 NAD        -43.3530     9.3820    -0.8550 nu         1 N7W      -0.929900
     36 NAE        -46.8120     3.1280    -0.6770 nb         1 N7W      -0.675000
     37 NAF        -48.5710    12.4600    -2.5520 ns         1 N7W      -0.166000
     38 NAG        -50.5740    10.3180    -2.7710 n3         1 N7W      -0.726600
     39 OBM        -43.4090     3.9000     0.0670 os         1 N7W      -0.323100
     40 OBN        -49.2330    11.1070    -0.2960 os         1 N7W      -0.360100
     41 OBO        -47.7790    14.4390    -3.3500 o          1 N7W      -0.594100
     42 CL1        -40.8180     4.8950    -0.5960 cl         1 N7W      -0.186000
     43 H1         -39.1330    10.4530    -1.3110 h5         1 N7W       0.048100
     44 H2         -43.9740    14.6780    -1.4640 h4         1 N7W       0.230000
     45 H3         -45.4260     7.9710    -0.2470 ha         1 N7W       0.113000
     46 H4         -45.5570     5.6030     0.1610 ha         1 N7W       0.130000
     47 H5         -41.2100     7.6570    -0.9640 ha         1 N7W       0.170000
     48 H6         -45.1800     3.6490     1.1400 h1         1 N7W       0.076200
     49 H7         -44.3210     2.2100     0.6110 h1         1 N7W       0.076200
     50 H8         -43.9010     3.0300    -2.3480 ha         1 N7W       0.141000
     51 H9         -45.4610     2.8490    -4.2750 ha         1 N7W       0.122000
     52 H10        -47.9250     2.8390    -3.8290 ha         1 N7W       0.124000
     53 H11        -48.7000     3.0150    -1.4810 h4         1 N7W       0.018100
     54 H12        -45.9270    13.0120    -2.7150 ha         1 N7W       0.143000
     55 H13        -47.2470    10.4740     1.3020 ha         1 N7W       0.122000
     56 H14        -44.8920    11.1230     0.9800 ha         1 N7W       0.125000
     57 H15        -48.8100     9.1760    -0.9500 h1         1 N7W       0.044200
     58 H16        -49.9180     9.2900     0.4120 h1         1 N7W       0.044200
     59 H17        -51.6350    10.3420    -0.9880 h1         1 N7W       0.047700
     60 H18        -51.2160     8.7220    -1.5240 h1         1 N7W       0.047700
     61 H19        -50.7360    13.5880    -3.6130 hc         1 N7W       0.056200
     62 H20        -49.8790    12.6530    -4.8060 hc         1 N7W       0.056200
     63 H21        -50.7730    14.7350    -5.8060 hc         1 N7W       0.041367
     64 H22        -49.8770    15.7220    -4.6600 hc         1 N7W       0.041367
     65 H23        -49.0140    14.7710    -5.8650 hc         1 N7W       0.041367
     66 H24        -52.3860    11.3650    -2.8860 h1         1 N7W       0.037700
     67 H25        -51.6040    11.0570    -4.4380 h1         1 N7W       0.037700
     68 H26        -52.4500     9.7470    -3.6070 h1         1 N7W       0.037700
     69 H27        -48.7930     9.2430    -3.1040 h1         1 N7W       0.037700
     70 H28        -50.2310     8.4850    -3.8040 h1         1 N7W       0.037700
     71 H29        -49.5290     9.9370    -4.5400 h1         1 N7W       0.037700
     72 H30        -41.4830    14.5750    -1.7200 hn         1 N7W       0.367000
     73 H31        -44.2870     9.7630    -0.8580 hn         1 N7W       0.509000
     74 H32        -49.3720    11.8110    -2.5900 hn         1 N7W       0.204000
@<TRIPOS>BOND
     1     1     2 ar  
     2     1     5 ar  
     3     1    34 1   
     4     2     3 ar  
     5     2     8 1   
     6     3     4 ar  
     7     3    35 1   
     8     4     6 ar  
     9     5     6 ar  
    10     6    43 1   
    11     7     8 2   
    12     7    34 1   
    13     7    44 1   
    14     8     9 1   
    15     9    22 ar  
    16     9    26 ar  
    17    10    11 ar  
    18    10    15 ar  
    19    10    35 1   
    20    11    12 ar  
    21    11    45 1   
    22    12    13 ar  
    23    12    46 1   
    24    13    14 ar  
    25    13    39 1   
    26    14    15 ar  
    27    14    42 1   
    28    15    47 1   
    29    16    17 1   
    30    16    39 1   
    31    16    48 1   
    32    16    49 1   
    33    17    18 ar  
    34    17    36 ar  
    35    18    19 ar  
    36    18    50 1   
    37    19    20 ar  
    38    19    51 1   
    39    20    21 ar  
    40    20    52 1   
    41    21    36 ar  
    42    21    53 1   
    43    22    23 ar  
    44    22    54 1   
    45    23    24 ar  
    46    23    37 1   
    47    24    25 ar  
    48    24    40 1   
    49    25    26 ar  
    50    25    55 1   
    51    26    56 1   
    52    27    28 1   
    53    27    40 1   
    54    27    57 1   
    55    27    58 1   
    56    28    38 1   
    57    28    59 1   
    58    28    60 1   
    59    29    30 1   
    60    29    37 1   
    61    29    41 2   
    62    30    31 1   
    63    30    61 1   
    64    30    62 1   
    65    31    63 1   
    66    31    64 1   
    67    31    65 1   
    68    32    38 1   
    69    32    66 1   
    70    32    67 1   
    71    32    68 1   
    72    33    38 1   
    73    33    69 1   
    74    33    70 1   
    75    33    71 1   
    76    34    72 1   
    77    35    73 1   
    78    37    74 1   
@<TRIPOS>SUBSTRUCTURE
     1 N7W         1 TEMP              0 ****  ****    0 ROOT
