@<TRIPOS>MOLECULE
N7Z
   70    74     1     0     0
SMALL
No Charge or Current Charge


@<TRIPOS>ATOM
      1 C4         -41.8560    12.2990    -0.7360 ca         1 N7Z       0.146500
      2 C5         -42.9050    11.4600    -1.0320 ca         1 N7Z      -0.246800
      3 C6         -42.6290    10.1450    -1.4460 ca         1 N7Z       0.437900
      4 N1         -41.3620     9.6930    -1.4670 nb         1 N7Z      -0.287000
      5 N3         -40.5820    11.8680    -0.7460 nb         1 N7Z      -0.227000
      6 C2         -40.4020    10.5710    -1.0900 ca         1 N7Z       0.180900
      7 CAK        -43.7750    13.5810    -0.6830 cc         1 N7Z      -0.164100
      8 CAL        -44.1200    12.2590    -0.9120 cd         1 N7Z      -0.050400
      9 CAM        -45.5060    11.7800    -1.1030 ca         1 N7Z      -0.063800
     10 CAN        -43.8490     7.9770    -2.1000 ca         1 N7Z       0.278000
     11 CAO        -44.9560     7.5550    -2.8540 ca         1 N7Z      -0.129000
     12 CAP        -45.3020     6.1950    -2.9250 ca         1 N7Z      -0.158000
     13 CAQ        -44.5460     5.2350    -2.2180 ca         1 N7Z       0.129100
     14 CAR        -43.4200     5.6590    -1.4780 ca         1 N7Z       0.106000
     15 CAS        -43.0780     7.0210    -1.4160 ca         1 N7Z      -0.091000
     16 CAT        -46.1940     3.4120    -2.5970 c3         1 N7Z       0.115300
     17 CAZ        -46.4750    12.6180    -1.6880 ca         1 N7Z      -0.060000
     18 CBA        -47.7930    12.1650    -1.9010 ca         1 N7Z      -0.088000
     19 CBB        -48.1740    10.8740    -1.4650 ca         1 N7Z       0.158100
     20 CBC        -47.2200    10.0570    -0.8220 ca         1 N7Z      -0.200000
     21 CBD        -45.9060    10.5130    -0.6370 ca         1 N7Z      -0.074000
     22 CBE        -49.9450     9.1700    -1.1910 c3         1 N7Z       0.167600
     23 CBF        -51.4460     9.0490    -1.5260 c3         1 N7Z      -0.077400
     24 CBG        -51.7560     8.9900    -3.0360 c3         1 N7Z       0.166600
     25 CBH        -49.5560    12.8320    -3.6080 c          1 N7Z       0.608100
     26 CBI        -50.5190    13.9890    -3.9060 c3         1 N7Z      -0.159400
     27 CBJ        -50.1020    14.7730    -5.1700 c3         1 N7Z      -0.076100
     28 NAC        -42.3740    13.5640    -0.5210 na         1 N7Z      -0.311400
     29 NAD        -43.6110     9.3490    -2.0080 nu         1 N7Z      -0.925900
     30 NAF        -48.7110    13.0470    -2.5290 ns         1 N7Z      -0.167000
     31 OBK        -44.8820     3.8920    -2.2160 os         1 N7Z      -0.302100
     32 OBL        -49.4870    10.4670    -1.6190 os         1 N7Z      -0.345100
     33 OBM        -49.5480    11.8080    -4.2830 o          1 N7Z      -0.583100
     34 OBN        -51.2530     7.7720    -3.5980 oh         1 N7Z      -0.667000
     35 Cl1        -42.4440     4.4940    -0.5800 cl         1 N7Z      -0.186000
     36 CAU        -47.2820     3.9780    -1.6720 ca         1 N7Z       0.302300
     37 CAV        -48.3540     4.7280    -2.1980 ca         1 N7Z      -0.159000
     38 CAW        -49.3290     5.2450    -1.3310 ca         1 N7Z      -0.070000
     39 CAX        -49.1960     4.9860     0.0420 ca         1 N7Z      -0.163000
     40 CAY        -48.1070     4.2200     0.4900 ca         1 N7Z       0.339900
     41 NAE        -47.1660     3.7200    -0.3440 nb         1 N7Z      -0.641000
     42 H1         -39.3760    10.2070    -1.1010 h5         1 N7Z       0.048100
     43 H2         -44.3840    14.4740    -0.5690 h4         1 N7Z       0.219000
     44 H3         -45.5610     8.2860    -3.3850 ha         1 N7Z       0.119000
     45 H4         -46.1570     5.9090    -3.5290 ha         1 N7Z       0.121000
     46 H5         -42.2320     7.3240    -0.8100 ha         1 N7Z       0.166000
     47 H6         -46.2200     2.3170    -2.5280 h1         1 N7Z       0.065200
     48 H7         -46.4150     3.6700    -3.6400 h1         1 N7Z       0.065200
     49 H8         -46.1940    13.6120    -2.0270 ha         1 N7Z       0.126000
     50 H9         -47.4800     9.0740    -0.4420 ha         1 N7Z       0.124000
     51 H10        -45.2070     9.8880    -0.0860 ha         1 N7Z       0.125000
     52 H11        -49.3850     8.3690    -1.6930 h1         1 N7Z       0.045200
     53 H12        -49.8130     9.0570    -0.1070 h1         1 N7Z       0.045200
     54 H13        -51.9760     9.9010    -1.0850 hc         1 N7Z       0.056200
     55 H14        -51.8460     8.1500    -1.0440 hc         1 N7Z       0.056200
     56 H15        -51.3140     9.8600    -3.5390 h1         1 N7Z       0.025700
     57 H16        -52.8440     9.0440    -3.1750 h1         1 N7Z       0.025700
     58 H17        -50.5440    14.6870    -3.0600 hc         1 N7Z       0.054700
     59 H18        -51.5220    13.5780    -4.0730 hc         1 N7Z       0.054700
     60 H19        -50.8040    15.5920    -5.3620 hc         1 N7Z       0.041700
     61 H20        -49.1000    15.2020    -5.0470 hc         1 N7Z       0.041700
     62 H21        -50.0920    14.1170    -6.0490 hc         1 N7Z       0.041700
     63 H22        -41.8020    14.3730    -0.3010 hn         1 N7Z       0.364000
     64 H23        -44.4190     9.9100    -2.2690 hn         1 N7Z       0.510000
     65 H24        -48.7760    13.9650    -2.1090 hn         1 N7Z       0.152000
     66 H25        -51.4550     7.7970    -4.5590 ho         1 N7Z       0.449000
     67 H26        -48.4280     4.9090    -3.2680 ha         1 N7Z       0.123000
     68 H27        -50.1650     5.8290    -1.7120 ha         1 N7Z       0.120000
     69 H28        -49.9250     5.3640     0.7530 ha         1 N7Z       0.124000
     70 H29        -47.9830     3.9990     1.5500 h4         1 N7Z       0.022100
@<TRIPOS>BOND
     1     1     2 ar  
     2     1     5 ar  
     3     1    28 1   
     4     2     3 ar  
     5     2     8 1   
     6     3     4 ar  
     7     3    29 1   
     8     4     6 ar  
     9     5     6 ar  
    10     6    42 1   
    11     7     8 2   
    12     7    28 1   
    13     7    43 1   
    14     8     9 1   
    15     9    17 ar  
    16     9    21 ar  
    17    10    11 ar  
    18    10    15 ar  
    19    10    29 1   
    20    11    12 ar  
    21    11    44 1   
    22    12    13 ar  
    23    12    45 1   
    24    13    14 ar  
    25    13    31 1   
    26    14    15 ar  
    27    14    35 1   
    28    15    46 1   
    29    16    31 1   
    30    16    36 1   
    31    16    47 1   
    32    16    48 1   
    33    17    18 ar  
    34    17    49 1   
    35    18    19 ar  
    36    18    30 1   
    37    19    20 ar  
    38    19    32 1   
    39    20    21 ar  
    40    20    50 1   
    41    21    51 1   
    42    22    23 1   
    43    22    32 1   
    44    22    52 1   
    45    22    53 1   
    46    23    24 1   
    47    23    54 1   
    48    23    55 1   
    49    24    34 1   
    50    24    56 1   
    51    24    57 1   
    52    25    26 1   
    53    25    30 1   
    54    25    33 2   
    55    26    27 1   
    56    26    58 1   
    57    26    59 1   
    58    27    60 1   
    59    27    61 1   
    60    27    62 1   
    61    28    63 1   
    62    29    64 1   
    63    30    65 1   
    64    34    66 1   
    65    36    37 ar  
    66    36    41 ar  
    67    37    38 ar  
    68    37    67 1   
    69    38    39 ar  
    70    38    68 1   
    71    39    40 ar  
    72    39    69 1   
    73    40    41 ar  
    74    40    70 1   
@<TRIPOS>SUBSTRUCTURE
     1 N7Z         1 TEMP              0 ****  ****    0 ROOT
