@<TRIPOS>MOLECULE
N7Z
   70    74     1     0     0
SMALL
abcg2


@<TRIPOS>ATOM
      1 C4         -41.8640    12.1710    -0.5580 ca         1 N7Z       0.146500
      2 C5         -43.0570    11.4740    -0.7890 ca         1 N7Z      -0.246800
      3 C6         -42.8940    10.1200    -1.1520 ca         1 N7Z       0.437900
      4 N1         -41.6750     9.5920    -1.1760 nb         1 N7Z      -0.287000
      5 N3         -40.6350    11.6520    -0.5960 nb         1 N7Z      -0.227000
      6 C2         -40.6300    10.3720    -0.8930 ca         1 N7Z       0.180900
      7 CAK        -43.5420    13.6090    -0.3520 cc         1 N7Z      -0.164100
      8 CAL        -44.1340    12.4110    -0.6450 cd         1 N7Z      -0.050400
      9 CAM        -45.5750    12.1580    -0.7690 ca         1 N7Z      -0.063800
     10 CAN        -44.0980     8.0270    -1.8250 ca         1 N7Z       0.278000
     11 CAO        -45.3540     7.6000    -2.2560 ca         1 N7Z      -0.129000
     12 CAP        -45.5930     6.2790    -2.5880 ca         1 N7Z      -0.158000
     13 CAQ        -44.5800     5.3280    -2.4990 ca         1 N7Z       0.129100
     14 CAR        -43.3310     5.7640    -2.0610 ca         1 N7Z       0.106000
     15 CAS        -43.0760     7.0830    -1.7280 ca         1 N7Z      -0.091000
     16 CAT        -45.9400     3.5470    -3.2720 c3         1 N7Z       0.115300
     17 CAZ        -46.3680    12.8990    -1.6480 ca         1 N7Z      -0.060000
     18 CBA        -47.7190    12.6440    -1.7910 ca         1 N7Z      -0.088000
     19 CBB        -48.3210    11.6070    -1.0600 ca         1 N7Z       0.158100
     20 CBC        -47.5420    10.8650    -0.1760 ca         1 N7Z      -0.200000
     21 CBD        -46.1920    11.1510    -0.0310 ca         1 N7Z      -0.074000
     22 CBE        -50.2640    10.2880    -0.6830 c3         1 N7Z       0.167600
     23 CBF        -51.6790    10.2200    -1.2170 c3         1 N7Z      -0.077400
     24 CBG        -51.7780    10.0010    -2.7150 c3         1 N7Z       0.166600
     25 CBH        -49.0120    12.8780    -3.8250 c          1 N7Z       0.608100
     26 CBI        -50.0310    13.7560    -4.5170 c3         1 N7Z      -0.159400
     27 CBJ        -50.3510    13.3150    -5.9330 c3         1 N7Z      -0.076100
     28 NAC        -42.1820    13.4590    -0.3010 na         1 N7Z      -0.311400
     29 NAD        -43.9730     9.3740    -1.4920 nu         1 N7Z      -0.925900
     30 NAF        -48.5020    13.4060    -2.6840 ns         1 N7Z      -0.167000
     31 OBK        -44.7010     4.0250    -2.8080 os         1 N7Z      -0.302100
     32 OBL        -49.6280    11.4170    -1.2640 os         1 N7Z      -0.345100
     33 OBM        -48.6790    11.7840    -4.2400 o          1 N7Z      -0.583100
     34 OBN        -51.1540     8.7770    -3.0420 oh         1 N7Z      -0.667000
     35 CL1        -42.0490     4.6100    -1.9300 cl         1 N7Z      -0.186000
     36 CAU        -47.0100     3.5100    -2.2070 ca         1 N7Z       0.302300
     37 CAV        -48.3500     3.5370    -2.5830 ca         1 N7Z      -0.159000
     38 CAW        -49.3180     3.4500    -1.5970 ca         1 N7Z      -0.070000
     39 CAX        -48.9140     3.3530    -0.2720 ca         1 N7Z      -0.163000
     40 CAY        -47.5540     3.3490    -0.0030 ca         1 N7Z       0.339900
     41 NAE        -46.6200     3.4210    -0.9440 nb         1 N7Z      -0.641000
     42 H1         -39.6620     9.8840    -0.9280 h5         1 N7Z       0.048100
     43 H2         -43.9990    14.5650    -0.1510 h4         1 N7Z       0.219000
     44 H3         -46.1710     8.3080    -2.3310 ha         1 N7Z       0.119000
     45 H4         -46.5880     6.0080    -2.9120 ha         1 N7Z       0.121000
     46 H5         -42.0910     7.3720    -1.4000 ha         1 N7Z       0.166000
     47 H6         -45.7410     2.5320    -3.6220 h1         1 N7Z       0.065200
     48 H7         -46.2910     4.1210    -4.1370 h1         1 N7Z       0.065200
     49 H8         -45.9210    13.6800    -2.2520 ha         1 N7Z       0.126000
     50 H9         -47.9750    10.0760     0.4240 ha         1 N7Z       0.124000
     51 H10        -45.6140    10.5810     0.6870 ha         1 N7Z       0.125000
     52 H11        -49.7130     9.3750    -0.9290 h1         1 N7Z       0.045200
     53 H12        -50.2790    10.3830     0.4080 h1         1 N7Z       0.045200
     54 H13        -52.2160    11.1360    -0.9600 hc         1 N7Z       0.056200
     55 H14        -52.1910     9.4090    -0.6910 hc         1 N7Z       0.056200
     56 H15        -51.3160    10.8410    -3.2460 h1         1 N7Z       0.025700
     57 H16        -52.8390     9.9940    -2.9950 h1         1 N7Z       0.025700
     58 H17        -49.6850    14.7930    -4.5030 hc         1 N7Z       0.054700
     59 H18        -50.9380    13.7430    -3.9030 hc         1 N7Z       0.054700
     60 H19        -51.1080    13.9690    -6.3660 hc         1 N7Z       0.041700
     61 H20        -49.4720    13.3550    -6.5750 hc         1 N7Z       0.041700
     62 H21        -50.7380    12.2970    -5.9570 hc         1 N7Z       0.041700
     63 H22        -41.5230    14.1890    -0.0820 hn         1 N7Z       0.364000
     64 H23        -44.8420     9.8860    -1.5320 hn         1 N7Z       0.510000
     65 H24        -48.8250    14.3130    -2.3820 hn         1 N7Z       0.152000
     66 H25        -51.1070     8.7090    -3.9990 ho         1 N7Z       0.449000
     67 H26        -48.6240     3.6290    -3.6260 ha         1 N7Z       0.123000
     68 H27        -50.3680     3.4730    -1.8530 ha         1 N7Z       0.120000
     69 H28        -49.6320     3.2870     0.5330 ha         1 N7Z       0.124000
     70 H29        -47.2020     3.2820     1.0210 h4         1 N7Z       0.022100
@<TRIPOS>BOND
     1     1     2 ar  
     2     1     5 ar  
     3     1    28 1   
     4     2     3 ar  
     5     2     8 1   
     6     3     4 ar  
     7     3    29 1   
     8     4     6 ar  
     9     5     6 ar  
    10     6    42 1   
    11     7     8 2   
    12     7    28 1   
    13     7    43 1   
    14     8     9 1   
    15     9    17 ar  
    16     9    21 ar  
    17    10    11 ar  
    18    10    15 ar  
    19    10    29 1   
    20    11    12 ar  
    21    11    44 1   
    22    12    13 ar  
    23    12    45 1   
    24    13    14 ar  
    25    13    31 1   
    26    14    15 ar  
    27    14    35 1   
    28    15    46 1   
    29    16    31 1   
    30    16    36 1   
    31    16    47 1   
    32    16    48 1   
    33    17    18 ar  
    34    17    49 1   
    35    18    19 ar  
    36    18    30 1   
    37    19    20 ar  
    38    19    32 1   
    39    20    21 ar  
    40    20    50 1   
    41    21    51 1   
    42    22    23 1   
    43    22    32 1   
    44    22    52 1   
    45    22    53 1   
    46    23    24 1   
    47    23    54 1   
    48    23    55 1   
    49    24    34 1   
    50    24    56 1   
    51    24    57 1   
    52    25    26 1   
    53    25    30 1   
    54    25    33 2   
    55    26    27 1   
    56    26    58 1   
    57    26    59 1   
    58    27    60 1   
    59    27    61 1   
    60    27    62 1   
    61    28    63 1   
    62    29    64 1   
    63    30    65 1   
    64    34    66 1   
    65    36    37 ar  
    66    36    41 ar  
    67    37    38 ar  
    68    37    67 1   
    69    38    39 ar  
    70    38    68 1   
    71    39    40 ar  
    72    39    69 1   
    73    40    41 ar  
    74    40    70 1   
@<TRIPOS>SUBSTRUCTURE
     1 N7Z         1 TEMP              0 ****  ****    0 ROOT
