@<TRIPOS>MOLECULE
N80
   20    20     1     0     0
SMALL
No Charge or Current Charge


@<TRIPOS>ATOM
      1 O           -2.3230     0.4420     0.9530 o          1 N80      -0.720000
      2 C           -1.7330     0.5750    -0.1150 c          1 N80       0.711000
      3 CA          -0.5120    -0.3770    -0.4960 c5         1 N80       0.097500
      4 CB          -0.6090    -1.7780     0.1820 c5         1 N80      -0.074400
      5 CG           0.8650    -2.2600     0.0820 c5         1 N80      -0.099400
      6 CD           1.6800    -1.0040     0.5200 c5         1 N80       0.228800
      7 N            0.7780     0.1070     0.1040 nh         1 N80      -0.672400
      8 CAD          1.2930     1.3240    -0.3460 c2         1 N80       0.114000
      9 CAA          2.5910     1.6550    -0.2860 c2         1 N80      -0.562000
     10 OXT         -2.1010     1.4060    -0.9370 o          1 N80      -0.720000
     11 H1          -0.4390    -0.4610    -1.5890 h1         1 N80       0.029700
     12 H2          -0.9210    -1.7170     1.2310 hc         1 N80       0.047700
     13 H3          -1.3100    -2.4440    -0.3330 hc         1 N80       0.047700
     14 H4           1.0700    -3.1300     0.7140 hc         1 N80       0.026200
     15 H5           1.1110    -2.5430    -0.9490 hc         1 N80       0.026200
     16 H6           1.8580    -0.9810     1.6030 h1         1 N80       0.021700
     17 H7           2.6480    -1.0010     0.0030 h1         1 N80       0.021700
     18 H8           0.5570     2.0060    -0.7880 h4         1 N80       0.187000
     19 H9           3.3570     1.0150     0.1480 ha         1 N80       0.143000
     20 H10          2.9320     2.6180    -0.6690 ha         1 N80       0.143000
@<TRIPOS>BOND
     1     1     2 1   
     2     2     3 1   
     3     2    10 1   
     4     3     4 1   
     5     3     7 1   
     6     3    11 1   
     7     4     5 1   
     8     4    12 1   
     9     4    13 1   
    10     5     6 1   
    11     5    14 1   
    12     5    15 1   
    13     6     7 1   
    14     6    16 1   
    15     6    17 1   
    16     7     8 1   
    17     8     9 2   
    18     8    18 1   
    19     9    19 1   
    20     9    20 1   
@<TRIPOS>SUBSTRUCTURE
     1 N80         1 TEMP              0 ****  ****    0 ROOT
