@<TRIPOS>MOLECULE
N80
   20    20     1     0     0
SMALL
bcc


@<TRIPOS>ATOM
      1 O           -1.4040     1.3490     0.8340 o          1 N80      -0.825300
      2 C           -1.6300     0.5680    -0.1060 c          1 N80       0.921600
      3 CA          -0.4860    -0.3550    -0.5790 c5         1 N80       0.097500
      4 CB          -0.6270    -1.7460     0.0530 c5         1 N80      -0.074400
      5 CG           0.8000    -2.2830     0.0650 c5         1 N80      -0.099400
      6 CD           1.6330    -1.0450     0.3750 c5         1 N80       0.228800
      7 N            0.8510     0.0370    -0.1760 nh         1 N80      -0.672400
      8 CAD          1.3570     1.2780    -0.3450 c2         1 N80       0.164000
      9 CAA          2.5860     1.7080    -0.0010 c2         1 N80      -0.462000
     10 OXT         -2.7100     0.3970    -0.7060 o          1 N80      -0.825300
     11 H1          -0.5500    -0.4470    -1.6720 h1         1 N80       0.029700
     12 H2          -0.9950    -1.6530     1.0790 hc         1 N80       0.047700
     13 H3          -1.3240    -2.3780    -0.4950 hc         1 N80       0.047700
     14 H4           0.9520    -3.0820     0.7910 hc         1 N80       0.026200
     15 H5           1.0630    -2.6760    -0.9200 hc         1 N80       0.026200
     16 H6           1.7870    -0.9180     1.4550 h1         1 N80       0.021700
     17 H7           2.6280    -1.0870    -0.0820 h1         1 N80       0.021700
     18 H8           0.6770     1.9740    -0.8230 h4         1 N80       0.137000
     19 H9           3.3160     1.0810     0.4930 ha         1 N80       0.093000
     20 H10          2.8680     2.7300    -0.2080 ha         1 N80       0.093000
@<TRIPOS>BOND
     1     1     2 1   
     2     2     3 1   
     3     2    10 1   
     4     3     4 1   
     5     3     7 1   
     6     3    11 1   
     7     4     5 1   
     8     4    12 1   
     9     4    13 1   
    10     5     6 1   
    11     5    14 1   
    12     5    15 1   
    13     6     7 1   
    14     6    16 1   
    15     6    17 1   
    16     7     8 1   
    17     8     9 2   
    18     8    18 1   
    19     9    19 1   
    20     9    20 1   
@<TRIPOS>SUBSTRUCTURE
     1 N80         1 TEMP              0 ****  ****    0 ROOT
