@<TRIPOS>MOLECULE
N81
   18    17     1     0     0
SMALL
abcg2


@<TRIPOS>ATOM
      1 O01         -1.4560     1.0310     1.4750 oh         1 N81      -0.705000
      2 C02         -1.3670     0.7030     0.1080 c3         1 N81       0.053300
      3 C03          0.0670     0.3400    -0.2920 c3         1 N81      -0.150700
      4 C04          0.5670    -0.9330     0.3690 c3         1 N81      -0.148400
      5 C05          1.9770    -1.3530    -0.0640 c          1 N81       0.738000
      6 O06          2.3340    -1.0580    -1.2240 o          1 N81      -0.800000
      7 O07          2.6490    -2.0180     0.7550 o          1 N81      -0.800000
      8 C08          0.9790     1.5500    -0.0190 c          1 N81       0.741000
      9 O09          0.7650     2.5700    -0.7150 o          1 N81      -0.790500
     10 O10          1.8460     1.4510     0.8720 o          1 N81      -0.790500
     11 C11         -2.3610    -0.4350    -0.2020 c          1 N81       0.686000
     12 O12         -2.4600    -0.8210    -1.3790 o          1 N81      -0.776000
     13 O13         -2.9990    -0.8670     0.7880 o          1 N81      -0.776000
     14 HO01        -2.1090     0.3820     1.7970 ho         1 N81       0.435000
     15 H02         -1.6630     1.5720    -0.4990 h1         1 N81       0.019700
     16 H03          0.0500     0.1850    -1.3740 hc         1 N81       0.050700
     17 H04          0.5250    -0.8490     1.4560 hc         1 N81       0.006200
     18 H04A        -0.1000    -1.7660     0.1050 hc         1 N81       0.006200
@<TRIPOS>BOND
     1     1     2 1   
     2     1    14 1   
     3     2     3 1   
     4     2    11 1   
     5     2    15 1   
     6     3     4 1   
     7     3     8 1   
     8     3    16 1   
     9     4     5 1   
    10     4    17 1   
    11     4    18 1   
    12     5     6 1   
    13     5     7 1   
    14     8     9 1   
    15     8    10 1   
    16    11    12 1   
    17    11    13 1   
@<TRIPOS>SUBSTRUCTURE
     1 N81         1 TEMP              0 ****  ****    0 ROOT
