@<TRIPOS>MOLECULE
N81
   18    17     1     0     0
SMALL
No Charge or Current Charge


@<TRIPOS>ATOM
      1 O01         -1.5580     0.5120     1.7490 oh         1 N81      -0.705000
      2 C02         -1.3830     0.6680     0.3160 c3         1 N81       0.053300
      3 C03          0.0830     0.3370    -0.1190 c3         1 N81      -0.150700
      4 C04          0.6820    -0.9590     0.5250 c3         1 N81      -0.148400
      5 C05          1.9430    -1.4220    -0.2430 c          1 N81       0.738000
      6 O06          1.7970    -2.1480    -1.2150 o          1 N81      -0.800000
      7 O07          3.0380    -1.0360     0.1380 o          1 N81      -0.800000
      8 C08          1.0090     1.5740     0.0190 c          1 N81       0.741000
      9 O09          1.4290     2.0910    -1.0080 o          1 N81      -0.790500
     10 O10          1.2840     2.0110     1.1290 o          1 N81      -0.790500
     11 C11         -2.4460    -0.1770    -0.4940 c          1 N81       0.686000
     12 O12         -2.7690     0.1950    -1.6140 o          1 N81      -0.776000
     13 O13         -3.0180    -1.0920     0.0900 o          1 N81      -0.776000
     14 HO01        -2.1240    -0.2920     1.8350 ho         1 N81       0.435000
     15 H02         -1.5720     1.7170     0.0470 h1         1 N81       0.019700
     16 H03          0.0200     0.1390    -1.1960 hc         1 N81       0.050700
     17 H04          0.9300    -0.7140     1.5660 hc         1 N81       0.006200
     18 H04A        -0.1020    -1.7200     0.4310 hc         1 N81       0.006200
@<TRIPOS>BOND
     1     1     2 1   
     2     1    14 1   
     3     2     3 1   
     4     2    11 1   
     5     2    15 1   
     6     3     4 1   
     7     3     8 1   
     8     3    16 1   
     9     4     5 1   
    10     4    17 1   
    11     4    18 1   
    12     5     6 1   
    13     5     7 1   
    14     8     9 1   
    15     8    10 1   
    16    11    12 1   
    17    11    13 1   
@<TRIPOS>SUBSTRUCTURE
     1 N81         1 TEMP              0 ****  ****    0 ROOT
