@<TRIPOS>MOLECULE
N82
   78    83     1     0     0
SMALL
bcc


@<TRIPOS>ATOM
      1 C4         -43.3020    12.6450    -1.7810 ca         1 N82       0.471800
      2 C5         -44.5330    11.9760    -1.7570 ca         1 N82      -0.371400
      3 C6         -44.4420    10.5760    -1.5950 ca         1 N82       0.765200
      4 N1         -43.2540    10.0160    -1.4050 nb         1 N82      -0.811000
      5 N3         -42.1020    12.0870    -1.6080 nb         1 N82      -0.748000
      6 C2         -42.1670    10.7890    -1.4130 ca         1 N82       0.703900
      7 CAL        -44.8960    14.1450    -2.1440 cc         1 N82      -0.107100
      8 CAM        -45.5550    12.9560    -1.9840 cd         1 N82      -0.052400
      9 CAN        -47.0130    12.7730    -2.0090 ca         1 N82      -0.042800
     10 CAO        -45.7580     8.4410    -1.5360 ca         1 N82       0.182600
     11 CAP        -47.0570     7.9790    -1.7740 ca         1 N82      -0.175000
     12 CAQ        -47.3590     6.6330    -1.6860 ca         1 N82      -0.078500
     13 CAR        -46.3830     5.7020    -1.3510 ca         1 N82      -0.151300
     14 CAS        -45.0970     6.1670    -1.1010 ca         1 N82      -0.078500
     15 CAT        -44.7730     7.5130    -1.1900 ca         1 N82      -0.175000
     16 CAU        -47.7650    13.2450    -3.0870 ca         1 N82      -0.097000
     17 CAV        -49.1420    13.0910    -3.1210 ca         1 N82       0.037600
     18 CAW        -49.7960    12.4620    -2.0440 ca         1 N82       0.108100
     19 CAX        -49.0550    11.9950    -0.9690 ca         1 N82      -0.198000
     20 CAY        -47.6750    12.1520    -0.9550 ca         1 N82      -0.117000
     21 CAZ        -46.7000     4.2320    -1.2850 c3         1 N82       0.165300
     22 CBA        -46.8230     3.5410    -3.6820 c          1 N82       0.731100
     23 CBB        -45.9730     2.7290    -4.5850 ca         1 N82      -0.144600
     24 CBC        -44.8940     2.2650    -3.8510 ca         1 N82      -0.144600
     25 CBD        -45.0280     2.7750    -2.4650 c          1 N82       0.731100
     26 CBE        -46.1260     2.4230    -5.9200 ca         1 N82      -0.064000
     27 CBF        -45.1460     1.6230    -6.5050 ca         1 N82      -0.117500
     28 CBG        -44.0620     1.1570    -5.7680 ca         1 N82      -0.117500
     29 CBH        -43.9190     1.4740    -4.4180 ca         1 N82      -0.064000
     30 CBI        -51.8770    11.7050    -1.1500 c3         1 N82       0.144400
     31 CBJ        -53.3520    11.7550    -1.4870 c3         1 N82       0.165800
     32 CBM        -49.6320    13.5150    -5.5040 c          1 N82       0.669100
     33 CBN        -50.7630    13.9850    -6.3960 c3         1 N82      -0.158400
     34 CBO        -50.5210    13.7120    -7.8690 c3         1 N82      -0.077100
     35 NAC        -43.5470    13.9530    -2.0220 na         1 N82      -0.260100
     36 NAD        -45.5640     9.8140    -1.6540 nu         1 N82      -0.735300
     37 NAE        -49.9410    13.5420    -4.1790 ns         1 N82      -0.477100
     38 NAF        -46.2030     3.5110    -2.4430 n          1 N82      -0.525400
     39 NAG        -53.7960    10.8050    -2.4890 n3         1 N82      -0.713600
     40 OBP        -51.1320    12.3750    -2.1550 os         1 N82      -0.344900
     41 OBR        -44.2880     2.6070    -1.5290 o          1 N82      -0.564000
     42 OBS        -48.5520    13.1570    -5.9330 o          1 N82      -0.578100
     43 H1         -41.2270    10.2740    -1.2470 h5         1 N82       0.047100
     44 H2         -45.2990    15.1290    -2.3170 h4         1 N82       0.171000
     45 H3         -47.8410     8.6820    -2.0350 ha         1 N82       0.151500
     46 H4         -48.3720     6.3070    -1.8880 ha         1 N82       0.139000
     47 H5         -44.3160     5.4680    -0.8270 ha         1 N82       0.139000
     48 H6         -43.7660     7.8360    -0.9900 ha         1 N82       0.151500
     49 H7         -47.2580    13.7310    -3.9070 ha         1 N82       0.162000
     50 H8         -49.5340    11.5090    -0.1310 ha         1 N82       0.140000
     51 H9         -47.1200    11.8030    -0.0920 ha         1 N82       0.142000
     52 H10        -47.7770     4.0720    -1.2180 h1         1 N82       0.068200
     53 H11        -46.2530     3.7750    -0.4040 h1         1 N82       0.068200
     54 H12        -46.9680     2.7870    -6.4940 ha         1 N82       0.156000
     55 H13        -45.2280     1.3590    -7.5510 ha         1 N82       0.139000
     56 H14        -43.3190     0.5390    -6.2520 ha         1 N82       0.139000
     57 H15        -43.0760     1.1090    -3.8450 ha         1 N82       0.156000
     58 H16        -51.5450    10.6660    -1.0530 h1         1 N82       0.046200
     59 H17        -51.7240    12.2000    -0.1850 h1         1 N82       0.046200
     60 H18        -53.6310    12.7940    -1.7360 h1         1 N82       0.041700
     61 H19        -53.8730    11.5150    -0.5560 h1         1 N82       0.041700
     62 H20        -52.2430    11.0140    -3.8990 h1         1 N82       0.032867
     63 H21        -53.7540    10.3790    -4.5260 h1         1 N82       0.032867
     64 H22        -53.6090    12.1060    -4.1750 h1         1 N82       0.032867
     65 H23        -55.5910    10.4160    -1.4830 h1         1 N82       0.032867
     66 H24        -55.7500    11.6370    -2.7540 h1         1 N82       0.032867
     67 H25        -55.5650     9.9300    -3.1770 h1         1 N82       0.032867
     68 H26        -50.8980    15.0580    -6.2270 hc         1 N82       0.056200
     69 H27        -51.6960    13.5180    -6.0700 hc         1 N82       0.056200
     70 H28        -51.3660    14.0690    -8.4570 hc         1 N82       0.044033
     71 H29        -49.6270    14.2180    -8.2310 hc         1 N82       0.044033
     72 H30        -50.4070    12.6460    -8.0660 hc         1 N82       0.044033
     73 H31        -42.8460    14.6730    -2.0880 hn         1 N82       0.314700
     74 H32        -46.4050    10.3270    -1.8720 hn         1 N82       0.454800
     75 H33        -50.8950    13.7670    -3.9430 hn         1 N82       0.327500
     76 OBQ        -47.8500     4.1200    -3.9300 o          1 N82      -0.564000
     77 CBK        -53.3250    11.0990    -3.8280 c3         1 N82       0.150100
     78 CBL        -55.2410    10.7010    -2.4760 c3         1 N82       0.150100
@<TRIPOS>BOND
     1     1     2 ar  
     2     1     5 ar  
     3     1    35 1   
     4     2     3 ar  
     5     2     8 1   
     6     3     4 ar  
     7     3    36 1   
     8     4     6 ar  
     9     5     6 ar  
    10     6    43 1   
    11     7     8 2   
    12     7    35 1   
    13     7    44 1   
    14     8     9 1   
    15     9    16 ar  
    16     9    20 ar  
    17    10    11 ar  
    18    10    15 ar  
    19    10    36 1   
    20    11    12 ar  
    21    11    45 1   
    22    12    13 ar  
    23    12    46 1   
    24    13    14 ar  
    25    13    21 1   
    26    14    15 ar  
    27    14    47 1   
    28    15    48 1   
    29    16    17 ar  
    30    16    49 1   
    31    17    18 ar  
    32    17    37 1   
    33    18    19 ar  
    34    18    40 1   
    35    19    20 ar  
    36    19    50 1   
    37    20    51 1   
    38    21    38 1   
    39    21    52 1   
    40    21    53 1   
    41    22    23 1   
    42    22    38 1   
    43    22    76 2   
    44    23    24 ar  
    45    23    26 ar  
    46    24    25 1   
    47    24    29 ar  
    48    25    38 1   
    49    25    41 2   
    50    26    27 ar  
    51    26    54 1   
    52    27    28 ar  
    53    27    55 1   
    54    28    29 ar  
    55    28    56 1   
    56    29    57 1   
    57    30    31 1   
    58    30    40 1   
    59    30    58 1   
    60    30    59 1   
    61    31    39 1   
    62    31    60 1   
    63    31    61 1   
    64    32    33 1   
    65    32    37 1   
    66    32    42 2   
    67    33    34 1   
    68    33    68 1   
    69    33    69 1   
    70    34    70 1   
    71    34    71 1   
    72    34    72 1   
    73    35    73 1   
    74    36    74 1   
    75    37    75 1   
    76    39    77 1   
    77    39    78 1   
    78    62    77 1   
    79    63    77 1   
    80    64    77 1   
    81    65    78 1   
    82    66    78 1   
    83    67    78 1   
@<TRIPOS>SUBSTRUCTURE
     1 N82         1 TEMP              0 ****  ****    0 ROOT
