@<TRIPOS>MOLECULE
N82
   78    83     1     0     0
SMALL
No Charge or Current Charge


@<TRIPOS>ATOM
      1 C4         -43.1550    12.7200    -2.0740 ca         1 N82       0.143500
      2 C5         -44.3400    12.0230    -1.9890 ca         1 N82      -0.240800
      3 C6         -44.2970    10.6190    -1.8720 ca         1 N82       0.436900
      4 N1         -43.1100     9.9900    -1.7810 nb         1 N82      -0.285000
      5 N3         -41.9620    12.1080    -1.9760 nb         1 N82      -0.222000
      6 C2         -42.0030    10.7660    -1.8130 ca         1 N82       0.177900
      7 CAL        -44.8460    14.2420    -2.4460 cc         1 N82      -0.157100
      8 CAM        -45.4060    13.0090    -2.1510 cd         1 N82      -0.052400
      9 CAN        -46.8610    12.7470    -2.1530 ca         1 N82      -0.042800
     10 CAO        -45.7570     8.4960    -1.8110 ca         1 N82       0.321000
     11 CAP        -46.9320     8.0050    -2.4020 ca         1 N82      -0.157000
     12 CAQ        -47.3170     6.6640    -2.2280 ca         1 N82      -0.060500
     13 CAR        -46.5290     5.7990    -1.4470 ca         1 N82      -0.151300
     14 CAS        -45.3590     6.2900    -0.8400 ca         1 N82      -0.060500
     15 CAT        -44.9790     7.6320    -1.0170 ca         1 N82      -0.157000
     16 CAU        -47.7020    13.4700    -3.0250 ca         1 N82      -0.079000
     17 CAV        -49.0980    13.2480    -3.0410 ca         1 N82      -0.055000
     18 CAW        -49.6580    12.3060    -2.1520 ca         1 N82       0.108100
     19 CAX        -48.8280    11.6150    -1.2460 ca         1 N82      -0.180000
     20 CAY        -47.4440    11.8470    -1.2410 ca         1 N82      -0.099000
     21 CAZ        -46.9370     4.3440    -1.2630 c3         1 N82       0.165300
     22 CBA        -46.9950     3.2000    -3.5070 c          1 N82       0.588600
     23 CBB        -46.0590     2.2950    -4.2350 ca         1 N82      -0.144600
     24 CBC        -44.9450     2.0800    -3.4320 ca         1 N82      -0.144600
     25 CBD        -45.1270     2.8390    -2.1610 c          1 N82       0.588600
     26 CBE        -46.1740     1.7060    -5.5020 ca         1 N82      -0.046000
     27 CBF        -45.1170     0.8810    -5.9440 ca         1 N82      -0.099500
     28 CBG        -43.9810     0.6620    -5.1260 ca         1 N82      -0.099500
     29 CBH        -43.8840     1.2640    -3.8520 ca         1 N82      -0.046000
     30 CBI        -51.6860    11.0940    -1.4030 c3         1 N82       0.167600
     31 CBJ        -53.2050    11.1040    -1.7290 c3         1 N82       0.165800
     32 CBM        -49.7950    14.8640    -4.9260 c          1 N82       0.602100
     33 CBN        -51.0900    15.3200    -5.6160 c3         1 N82      -0.158400
     34 CBO        -51.2240    14.7200    -7.0330 c3         1 N82      -0.077100
     35 NAC        -43.4560    14.0440    -2.3320 na         1 N82      -0.310400
     36 NAD        -45.4370     9.8410    -2.0040 nu         1 N82      -0.928900
     37 NAE        -49.9900    13.9250    -3.9230 ns         1 N82      -0.151000
     38 NAF        -46.3640     3.4670    -2.2940 n          1 N82      -0.391400
     39 NAG        -53.6290    10.4000    -2.9790 n3         1 N82      -0.713600
     40 OBP        -51.0250    12.1040    -2.1940 os         1 N82      -0.368100
     41 OBR        -44.3640     2.9000    -1.2080 o          1 N82      -0.488500
     42 OBS        -48.7060    15.3280    -5.2410 o          1 N82      -0.578100
     43 H1         -41.0450    10.2550    -1.7320 h5         1 N82       0.047100
     44 H2         -45.3000    15.2040    -2.6680 h4         1 N82       0.221000
     45 H3         -47.5510     8.6620    -3.0070 ha         1 N82       0.133500
     46 H4         -48.2260     6.2990    -2.7030 ha         1 N82       0.121000
     47 H5         -44.7440     5.6350    -0.2260 ha         1 N82       0.121000
     48 H6         -44.0870     7.9930    -0.5180 ha         1 N82       0.133500
     49 H7         -47.2490    14.1800    -3.7060 ha         1 N82       0.144000
     50 H8         -49.2380    10.9100    -0.5290 ha         1 N82       0.122000
     51 H9         -46.8310    11.3550    -0.4890 ha         1 N82       0.124000
     52 H10        -48.0320     4.2640    -1.2890 h1         1 N82       0.068200
     53 H11        -46.6160     3.9950    -0.2730 h1         1 N82       0.068200
     54 H12        -47.0500     1.8800    -6.1250 ha         1 N82       0.138000
     55 H13        -45.1760     0.4100    -6.9230 ha         1 N82       0.121000
     56 H14        -43.1750     0.0240    -5.4810 ha         1 N82       0.121000
     57 H15        -43.0150     1.1010    -3.2180 ha         1 N82       0.138000
     58 H16        -51.2740    10.0970    -1.6040 h1         1 N82       0.046200
     59 H17        -51.5570    11.3130    -0.3350 h1         1 N82       0.046200
     60 H18        -53.5470    12.1480    -1.7490 h1         1 N82       0.041700
     61 H19        -53.7090    10.6300    -0.8760 h1         1 N82       0.041700
     62 H20        -51.9200    10.8190    -4.1990 h1         1 N82       0.032867
     63 H21        -53.3830    10.4030    -5.1000 h1         1 N82       0.032867
     64 H22        -53.2430    12.0050    -4.3390 h1         1 N82       0.032867
     65 H23        -55.5320     9.8290    -2.2040 h1         1 N82       0.032867
     66 H24        -55.5490    11.3080    -3.1940 h1         1 N82       0.032867
     67 H25        -55.3890     9.7140    -3.9690 h1         1 N82       0.032867
     68 H26        -51.0770    16.4130    -5.7050 hc         1 N82       0.056200
     69 H27        -51.9620    15.0060    -5.0280 hc         1 N82       0.056200
     70 H28        -52.1530    15.0600    -7.5060 hc         1 N82       0.044033
     71 H29        -50.3840    15.0280    -7.6680 hc         1 N82       0.044033
     72 H30        -51.2420    13.6240    -6.9910 hc         1 N82       0.044033
     73 H31        -42.7520    14.7660    -2.4530 hn         1 N82       0.365000
     74 H32        -46.2220    10.4000    -2.3290 hn         1 N82       0.510000
     75 H33        -50.9570    13.6590    -3.7900 hn         1 N82       0.161000
     76 OBQ        -48.0800     3.6170    -3.8860 o          1 N82      -0.488500
     77 CBK        -53.0110    10.9390    -4.2160 c3         1 N82       0.150100
     78 CBL        -55.1020    10.3100    -3.0930 c3         1 N82       0.150100
@<TRIPOS>BOND
     1     1     2 ar  
     2     1     5 ar  
     3     1    35 1   
     4     2     3 ar  
     5     2     8 1   
     6     3     4 ar  
     7     3    36 1   
     8     4     6 ar  
     9     5     6 ar  
    10     6    43 1   
    11     7     8 2   
    12     7    35 1   
    13     7    44 1   
    14     8     9 1   
    15     9    16 ar  
    16     9    20 ar  
    17    10    11 ar  
    18    10    15 ar  
    19    10    36 1   
    20    11    12 ar  
    21    11    45 1   
    22    12    13 ar  
    23    12    46 1   
    24    13    14 ar  
    25    13    21 1   
    26    14    15 ar  
    27    14    47 1   
    28    15    48 1   
    29    16    17 ar  
    30    16    49 1   
    31    17    18 ar  
    32    17    37 1   
    33    18    19 ar  
    34    18    40 1   
    35    19    20 ar  
    36    19    50 1   
    37    20    51 1   
    38    21    38 1   
    39    21    52 1   
    40    21    53 1   
    41    22    23 1   
    42    22    38 1   
    43    22    76 2   
    44    23    24 ar  
    45    23    26 ar  
    46    24    25 1   
    47    24    29 ar  
    48    25    38 1   
    49    25    41 2   
    50    26    27 ar  
    51    26    54 1   
    52    27    28 ar  
    53    27    55 1   
    54    28    29 ar  
    55    28    56 1   
    56    29    57 1   
    57    30    31 1   
    58    30    40 1   
    59    30    58 1   
    60    30    59 1   
    61    31    39 1   
    62    31    60 1   
    63    31    61 1   
    64    32    33 1   
    65    32    37 1   
    66    32    42 2   
    67    33    34 1   
    68    33    68 1   
    69    33    69 1   
    70    34    70 1   
    71    34    71 1   
    72    34    72 1   
    73    35    73 1   
    74    36    74 1   
    75    37    75 1   
    76    39    77 1   
    77    39    78 1   
    78    62    77 1   
    79    63    77 1   
    80    64    77 1   
    81    65    78 1   
    82    66    78 1   
    83    67    78 1   
@<TRIPOS>SUBSTRUCTURE
     1 N82         1 TEMP              0 ****  ****    0 ROOT
