@<TRIPOS>MOLECULE
N83
   19    19     1     0     0
SMALL
bcc


@<TRIPOS>ATOM
      1 C1          10.1410    13.1120    43.7650 c2         1 N83      -0.120000
      2 C2          10.9160    12.0800    43.4540 ce         1 N83      -0.257200
      3 C3          10.6140    10.7100    43.9410 c          1 N83       0.676300
      4 C6          11.5730     8.4230    43.8320 ca         1 N83      -0.042700
      5 C7          10.5870     7.7060    44.5070 ca         1 N83      -0.117000
      6 C8          10.7930     6.3520    44.7220 ca         1 N83      -0.219300
      7 C11         12.7100     7.7200    43.4140 ca         1 N83       0.348200
      8 O4           9.6470    10.4520    44.6370 o          1 N83      -0.581100
      9 N5          11.5230     9.7820    43.5320 ns         1 N83      -0.466100
     10 C9          11.9550     5.7520    44.2670 ca         1 N83       0.369200
     11 N10         12.8980     6.4300    43.6210 nb         1 N83      -0.643000
     12 H12          9.2590    13.0000    44.3830 ha         1 N83       0.129000
     13 H13         10.3680    14.1070    43.4100 ha         1 N83       0.129000
     14 H14         11.7950    12.2240    42.8340 ha         1 N83       0.128000
     15 H16          9.6850     8.1780    44.8570 ha         1 N83       0.171000
     16 H17         10.0480     5.7670    45.2440 ha         1 N83       0.143000
     17 H19         13.4990     8.2480    42.8850 h4         1 N83       0.012100
     18 H15         12.2880    10.1220    42.9680 hn         1 N83       0.320500
     19 H18         12.1340     4.6950    44.4260 h4         1 N83       0.022100
@<TRIPOS>BOND
     1     1     2 2   
     2     1    12 1   
     3     1    13 1   
     4     2     3 1   
     5     2    14 1   
     6     3     8 2   
     7     3     9 1   
     8     4     5 ar  
     9     4     7 ar  
    10     4     9 1   
    11     5     6 ar  
    12     5    15 1   
    13     6    10 ar  
    14     6    16 1   
    15     7    11 ar  
    16     7    17 1   
    17     9    18 1   
    18    10    11 ar  
    19    10    19 1   
@<TRIPOS>SUBSTRUCTURE
     1 N83         1 TEMP              0 ****  ****    0 ROOT
