@<TRIPOS>MOLECULE
N83
   19    19     1     0     0
SMALL
No Charge or Current Charge


@<TRIPOS>ATOM
      1 C1          10.1220    13.2210    43.6970 c2         1 N83      -0.220000
      2 C2          10.8980    12.1280    43.4850 ce         1 N83      -0.307200
      3 C3          10.5640    10.7490    43.9600 c          1 N83       0.609300
      4 C6          11.5970     8.3930    43.8640 ca         1 N83      -0.070000
      5 C7          10.6180     7.6600    44.5720 ca         1 N83      -0.099000
      6 C8          10.8140     6.2790    44.7470 ca         1 N83      -0.136000
      7 C11         12.7200     7.6920    43.3720 ca         1 N83       0.282900
      8 O4           9.5400    10.5130    44.5890 o          1 N83      -0.581100
      9 N5          11.5150     9.7960    43.6190 ns         1 N83      -0.140000
     10 C9          11.9660     5.6730    44.2190 ca         1 N83       0.303900
     11 N10         12.9110     6.3630    43.5400 nb         1 N83      -0.643000
     12 H12          9.1780    13.1650    44.2420 ha         1 N83       0.179000
     13 H13         10.4090    14.2080    43.3290 ha         1 N83       0.179000
     14 H14         11.8340    12.2250    42.9350 ha         1 N83       0.178000
     15 H16          9.7260     8.1260    44.9810 ha         1 N83       0.153000
     16 H17         10.0850     5.6800    45.2850 ha         1 N83       0.125000
     17 H19         13.5000     8.2180    42.8210 h4         1 N83       0.012100
     18 H15         12.2990    10.1660    43.0980 hn         1 N83       0.154000
     19 H18         12.1380     4.6040    44.3430 h4         1 N83       0.022100
@<TRIPOS>BOND
     1     1     2 2   
     2     1    12 1   
     3     1    13 1   
     4     2     3 1   
     5     2    14 1   
     6     3     8 2   
     7     3     9 1   
     8     4     5 ar  
     9     4     7 ar  
    10     4     9 1   
    11     5     6 ar  
    12     5    15 1   
    13     6    10 ar  
    14     6    16 1   
    15     7    11 ar  
    16     7    17 1   
    17     9    18 1   
    18    10    11 ar  
    19    10    19 1   
@<TRIPOS>SUBSTRUCTURE
     1 N83         1 TEMP              0 ****  ****    0 ROOT
