@<TRIPOS>MOLECULE
N84
   36    37     1     0     0
SMALL
No Charge or Current Charge


@<TRIPOS>ATOM
      1 CAA        -26.8330     4.2560    13.9940 ca         1 N84      -0.172000
      2 CAB        -25.5220     4.2320    13.4940 ca         1 N84       0.226100
      3 CAC        -24.4770     3.6400    14.2600 ca         1 N84      -0.149000
      4 CAD        -24.7990     3.0880    15.5180 ca         1 N84      -0.005000
      5 CAE        -26.1180     3.1160    16.0120 ca         1 N84      -0.307500
      6 CAF        -27.1400     3.7030    15.2450 ca         1 N84       0.013000
      7 CAM        -22.3760     3.9180    12.7630 c          1 N84       0.658100
      8 CAP        -20.0530     3.9310    11.8200 c3         1 N84       0.163300
      9 CAQ        -19.4430     5.3100    12.0280 ca         1 N84      -0.065300
     10 CAR        -20.0080     6.4540    11.4360 ca         1 N84      -0.153500
     11 CAS        -19.4180     7.7100    11.6580 ca         1 N84       0.339900
     12 CAU        -17.7720     6.7820    12.9970 ca         1 N84       0.339900
     13 CAV        -18.2990     5.4890    12.8270 ca         1 N84      -0.153500
     14 NAJ        -26.7380     0.8360    17.2260 n8         1 N84      -1.004100
     15 NAL        -23.0940     3.5420    13.8870 ns         1 N84      -0.154000
     16 NAN        -21.0400     3.6210    12.8550 ns         1 N84      -0.506900
     17 NAT        -18.3160     7.8810    12.4250 nb         1 N84      -0.659000
     18 OAH        -25.3020     2.4030    18.4690 o          1 N84      -0.548000
     19 OAI        -27.8000     2.8590    18.0750 o          1 N84      -0.548000
     20 OAK        -25.3230     4.7960    12.2720 oh         1 N84      -0.565100
     21 OAO        -22.8630     4.4570    11.7800 o          1 N84      -0.654100
     22 SAG        -26.4900     2.4030    17.6160 sy         1 N84       1.134600
     23 H1         -27.6230     4.7110    13.4040 ha         1 N84       0.137000
     24 H2         -24.0130     2.6300    16.1170 ha         1 N84       0.127000
     25 H3         -28.1660     3.7380    15.6090 ha         1 N84       0.142000
     26 H4         -20.5240     3.8770    10.8290 h1         1 N84       0.066700
     27 H5         -19.2610     3.1710    11.8490 h1         1 N84       0.066700
     28 H6         -20.8950     6.3780    10.8130 ha         1 N84       0.121000
     29 H7         -19.8410     8.6080    11.2090 h4         1 N84       0.020600
     30 H8         -16.8870     6.9420    13.6110 h4         1 N84       0.020600
     31 H9         -17.8200     4.6440    13.3130 ha         1 N84       0.121000
     32 H10        -27.6540     0.6790    17.6390 hn         1 N84       0.472000
     33 H11        -26.9250     0.8920    16.2280 hn         1 N84       0.472000
     34 H12        -22.5230     3.1060    14.5990 hn         1 N84       0.151000
     35 H13        -20.7200     3.1770    13.7060 hn         1 N84       0.322500
     36 H14        -24.3570     4.6840    12.0350 ho         1 N84       0.528000
@<TRIPOS>BOND
     1     1     2 ar  
     2     1     6 ar  
     3     1    23 1   
     4     2     3 ar  
     5     2    20 1   
     6     3     4 ar  
     7     3    15 1   
     8     4     5 ar  
     9     4    24 1   
    10     5     6 ar  
    11     5    22 1   
    12     6    25 1   
    13     7    15 1   
    14     7    16 1   
    15     7    21 2   
    16     8     9 1   
    17     8    16 1   
    18     8    26 1   
    19     8    27 1   
    20     9    10 ar  
    21     9    13 ar  
    22    10    11 ar  
    23    10    28 1   
    24    11    17 ar  
    25    11    29 1   
    26    12    13 ar  
    27    12    17 ar  
    28    12    30 1   
    29    13    31 1   
    30    14    22 1   
    31    14    32 1   
    32    14    33 1   
    33    15    34 1   
    34    16    35 1   
    35    18    22 2   
    36    19    22 2   
    37    20    36 1   
@<TRIPOS>SUBSTRUCTURE
     1 N84         1 TEMP              0 ****  ****    0 ROOT
