@<TRIPOS>MOLECULE
N84
   36    37     1     0     0
SMALL
abcg2


@<TRIPOS>ATOM
      1 CAA        -26.2180     5.1190    14.8510 ca         1 N84      -0.172000
      2 CAB        -24.8980     5.0020    14.4160 ca         1 N84       0.226100
      3 CAC        -24.1500     3.8710    14.8070 ca         1 N84      -0.149000
      4 CAD        -24.7470     2.9090    15.6070 ca         1 N84      -0.005000
      5 CAE        -26.0580     3.0600    16.0380 ca         1 N84      -0.307500
      6 CAF        -26.8020     4.1690    15.6670 ca         1 N84       0.013000
      7 CAM        -22.1880     3.9270    13.3050 c          1 N84       0.658100
      8 CAP        -20.1650     3.7310    11.9860 c3         1 N84       0.163300
      9 CAQ        -19.7310     5.1680    11.8480 ca         1 N84      -0.065300
     10 CAR        -19.5400     5.7290    10.5910 ca         1 N84      -0.153500
     11 CAS        -19.0950     7.0380    10.4960 ca         1 N84       0.339900
     12 CAU        -19.0260     7.2680    12.7500 ca         1 N84       0.339900
     13 CAV        -19.4650     5.9690    12.9520 ca         1 N84      -0.153500
     14 NAJ        -26.9530     0.5760    15.9950 n8         1 N84      -1.004100
     15 NAL        -22.7850     3.7010    14.5070 ns         1 N84      -0.154000
     16 NAN        -20.9360     3.4630    13.1730 ns         1 N84      -0.506900
     17 NAT        -18.8390     7.8050    11.5500 nb         1 N84      -0.659000
     18 OAH        -25.7670     1.3550    18.0300 o          1 N84      -0.548000
     19 OAI        -28.0270     2.3240    17.5810 o          1 N84      -0.548000
     20 OAK        -24.3940     5.9860    13.6720 oh         1 N84      -0.565100
     21 OAO        -22.7540     4.5380    12.3890 o          1 N84      -0.654100
     22 SAG        -26.7600     1.8180    17.0700 sy         1 N84       1.134600
     23 H1         -26.7840     5.9900    14.5470 ha         1 N84       0.137000
     24 H2         -24.1690     2.0430    15.9050 ha         1 N84       0.127000
     25 H3         -27.8230     4.2980    15.9960 ha         1 N84       0.142000
     26 H4         -20.7140     3.4240    11.0940 h1         1 N84       0.066700
     27 H5         -19.2790     3.0980    12.0340 h1         1 N84       0.066700
     28 H6         -19.7380     5.1620     9.6900 ha         1 N84       0.121000
     29 H7         -18.9440     7.4880     9.5210 h4         1 N84       0.020600
     30 H8         -18.8150     7.9020    13.6040 h4         1 N84       0.020600
     31 H9         -19.5980     5.6000    13.9600 ha         1 N84       0.121000
     32 H10        -27.0830    -0.3110    16.4730 hn         1 N84       0.472000
     33 H11        -27.7160     0.7380    15.3460 hn         1 N84       0.472000
     34 H12        -22.2700     3.1540    15.1810 hn         1 N84       0.151000
     35 H13        -20.4970     2.9550    13.9230 hn         1 N84       0.322500
     36 H14        -23.7090     5.5990    13.0620 ho         1 N84       0.528000
@<TRIPOS>BOND
     1     1     2 ar  
     2     1     6 ar  
     3     1    23 1   
     4     2     3 ar  
     5     2    20 1   
     6     3     4 ar  
     7     3    15 1   
     8     4     5 ar  
     9     4    24 1   
    10     5     6 ar  
    11     5    22 1   
    12     6    25 1   
    13     7    15 1   
    14     7    16 1   
    15     7    21 2   
    16     8     9 1   
    17     8    16 1   
    18     8    26 1   
    19     8    27 1   
    20     9    10 ar  
    21     9    13 ar  
    22    10    11 ar  
    23    10    28 1   
    24    11    17 ar  
    25    11    29 1   
    26    12    13 ar  
    27    12    17 ar  
    28    12    30 1   
    29    13    31 1   
    30    14    22 1   
    31    14    32 1   
    32    14    33 1   
    33    15    34 1   
    34    16    35 1   
    35    18    22 2   
    36    19    22 2   
    37    20    36 1   
@<TRIPOS>SUBSTRUCTURE
     1 N84         1 TEMP              0 ****  ****    0 ROOT
