@<TRIPOS>MOLECULE
N85
   45    47     1     0     0
SMALL
abcg2


@<TRIPOS>ATOM
      1 N1           1.0960    -0.4890     0.4650 ns         1 N85      -0.516900
      2 C2           0.2490     0.3040     1.1770 c          1 N85       0.667100
      3 O2           0.6080     1.1090     2.0050 o          1 N85      -0.545100
      4 N3          -1.0850     0.0770     0.8470 ns         1 N85      -0.499500
      5 C4          -2.1780     0.6110     1.4950 c          1 N85       0.652300
      6 O4          -2.1270     1.1850     2.5590 o          1 N85      -0.503100
      7 C5          -3.4590     0.4050     0.8020 cc         1 N85      -0.168300
      8 C7          -4.7010     0.4750     1.3750 cd         1 N85      -0.141200
      9 C8          -5.6450     0.1850     0.3520 ca         1 N85      -0.121800
     10 C9          -7.0450     0.1000     0.3150 ca         1 N85      -0.044000
     11 C1           2.5080    -0.3030     0.4910 c6         1 N85       0.306700
     12 C10         -7.6580    -0.1950    -0.8820 ca         1 N85      -0.144000
     13 C11         -6.9030    -0.4110    -2.0520 ca         1 N85      -0.075000
     14 C12         -5.5270    -0.3390    -2.0470 ca         1 N85      -0.137000
     15 C16         -4.9070    -0.0450    -0.8300 ca         1 N85      -0.030200
     16 C13          3.2280    -1.6390     0.2920 c6         1 N85       0.101300
     17 O1           2.9740    -2.5250     1.3510 oh         1 N85      -0.713000
     18 C3           4.7290    -1.3860     0.2530 c6         1 N85       0.139300
     19 O3           5.4530    -2.5490    -0.0680 oh         1 N85      -0.665000
     20 N30         -3.5860     0.0780    -0.5280 na         1 N85      -0.219700
     21 C14          5.0710    -0.3290    -0.7910 c6         1 N85       0.142300
     22 O7           6.4290     0.0280    -0.7300 oh         1 N85      -0.714000
     23 C15          4.2360     0.9280    -0.5380 c6         1 N85       0.179300
     24 O5           2.8640     0.5920    -0.5360 os         1 N85      -0.466000
     25 C6           4.4550     1.9750    -1.6090 c3         1 N85       0.172600
     26 O6           3.7120     3.1250    -1.2810 oh         1 N85      -0.706000
     27 HN1          0.7250    -1.0560    -0.2840 hn         1 N85       0.302500
     28 HN3         -1.2680    -0.5700     0.0940 hn         1 N85       0.308500
     29 H7          -4.9070     0.6830     2.4130 ha         1 N85       0.223000
     30 H9          -7.6300     0.2680     1.2110 ha         1 N85       0.120000
     31 H1           2.7860     0.1070     1.4700 h2         1 N85       0.093700
     32 H10         -8.7370    -0.2610    -0.9310 ha         1 N85       0.115000
     33 H11         -7.4180    -0.6420    -2.9750 ha         1 N85       0.113000
     34 H12         -4.9510    -0.5100    -2.9470 ha         1 N85       0.115000
     35 H2           2.9170    -2.0640    -0.6760 h1         1 N85       0.047700
     36 HO2          2.0660    -2.8390     1.2860 ho         1 N85       0.517000
     37 H3           5.0320    -0.9960     1.2380 h1         1 N85       0.060700
     38 HO3          5.4030    -3.1570     0.6760 ho         1 N85       0.467000
     39 HN30        -2.8500     0.0950    -1.2160 hn         1 N85       0.347000
     40 H4           4.8080    -0.7220    -1.7860 h1         1 N85       0.051700
     41 HO4          6.9540    -0.7620    -0.8950 ho         1 N85       0.526000
     42 H5           4.5220     1.3470     0.4420 h1         1 N85       0.069700
     43 H6           5.5270     2.1890    -1.6680 h1         1 N85       0.034700
     44 H6'A         4.1540     1.5580    -2.5800 h1         1 N85       0.034700
     45 HO6          3.9420     3.8150    -1.9090 ho         1 N85       0.504000
@<TRIPOS>BOND
     1     1     2 1   
     2     1    11 1   
     3     1    27 1   
     4     2     3 2   
     5     2     4 1   
     6     4     5 1   
     7     4    28 1   
     8     5     6 2   
     9     5     7 1   
    10     7     8 2   
    11     7    20 1   
    12     8     9 1   
    13     8    29 1   
    14     9    10 ar  
    15     9    15 ar  
    16    10    12 ar  
    17    10    30 1   
    18    11    16 1   
    19    11    24 1   
    20    11    31 1   
    21    12    13 ar  
    22    12    32 1   
    23    13    14 ar  
    24    13    33 1   
    25    14    15 ar  
    26    14    34 1   
    27    15    20 1   
    28    16    17 1   
    29    16    18 1   
    30    16    35 1   
    31    17    36 1   
    32    18    19 1   
    33    18    21 1   
    34    18    37 1   
    35    19    38 1   
    36    20    39 1   
    37    21    22 1   
    38    21    23 1   
    39    21    40 1   
    40    22    41 1   
    41    23    24 1   
    42    23    25 1   
    43    23    42 1   
    44    25    26 1   
    45    25    43 1   
    46    25    44 1   
    47    26    45 1   
@<TRIPOS>SUBSTRUCTURE
     1 N85         1 TEMP              0 ****  ****    0 ROOT
