@<TRIPOS>MOLECULE
N85
   45    47     1     0     0
SMALL
No Charge or Current Charge


@<TRIPOS>ATOM
      1 N1           1.1070    -0.0890     0.3400 ns         1 N85      -0.516900
      2 C2           0.2230     0.0120     1.3750 c          1 N85       0.667100
      3 O2           0.5760     0.0980     2.5370 o          1 N85      -0.545100
      4 N3          -1.0720    -0.0070     0.9560 ns         1 N85      -0.499500
      5 C4          -2.2290     0.0670     1.6860 c          1 N85       0.652300
      6 O4          -2.2510     0.1660     2.9050 o          1 N85      -0.503100
      7 C5          -3.4610     0.0160     0.8510 cc         1 N85      -0.168300
      8 C7          -4.7500     0.0750     1.3750 cd         1 N85      -0.141200
      9 C8          -5.7320     0.0030     0.3240 ca         1 N85      -0.121800
     10 C9          -7.1310     0.0230     0.3510 ca         1 N85      -0.044000
     11 C1           2.5560    -0.0120     0.4690 c6         1 N85       0.306700
     12 C10         -7.8050    -0.0680    -0.8870 ca         1 N85      -0.144000
     13 C11         -7.0750    -0.1760    -2.0960 ca         1 N85      -0.075000
     14 C12         -5.6620    -0.1930    -2.0800 ca         1 N85      -0.137000
     15 C16         -5.0220    -0.1010    -0.8370 ca         1 N85      -0.030200
     16 C13          3.2260    -1.4290     0.4170 c6         1 N85       0.101300
     17 O1           2.8470    -2.2710     1.5320 oh         1 N85      -0.713000
     18 C3           4.7710    -1.2540     0.3940 c6         1 N85       0.139300
     19 O3           5.4130    -2.5370     0.3030 oh         1 N85      -0.665000
     20 N30         -3.6650    -0.0950    -0.5520 na         1 N85      -0.219700
     21 C14          5.1980    -0.3350    -0.7870 c6         1 N85       0.142300
     22 O7           6.6270    -0.1570    -0.7700 oh         1 N85      -0.714000
     23 C15          4.4290     1.0200    -0.6870 c6         1 N85       0.179300
     24 O5           2.9970     0.7700    -0.6540 os         1 N85      -0.466000
     25 C6           4.7380     1.9710    -1.8920 c3         1 N85       0.172600
     26 O6           4.0010     3.2110    -1.8470 oh         1 N85      -0.706000
     27 HN1          0.7330    -0.1300    -0.5980 hn         1 N85       0.302500
     28 HN3         -1.2020    -0.0850    -0.0370 hn         1 N85       0.308500
     29 H7          -4.9810     0.1640     2.4350 ha         1 N85       0.223000
     30 H9          -7.6780     0.1060     1.2880 ha         1 N85       0.120000
     31 H1           2.8220     0.4980     1.4090 h2         1 N85       0.093700
     32 H10         -8.8930    -0.0560    -0.9110 ha         1 N85       0.115000
     33 H11         -7.6050    -0.2460    -3.0440 ha         1 N85       0.113000
     34 H12         -5.0920    -0.2750    -3.0020 ha         1 N85       0.115000
     35 H2           2.9200    -1.9080    -0.5260 h1         1 N85       0.047700
     36 HO2          1.8630    -2.2500     1.5910 ho         1 N85       0.517000
     37 H3           5.0650    -0.7600     1.3340 h1         1 N85       0.060700
     38 HO3          4.8560    -3.1300     0.8620 ho         1 N85       0.467000
     39 HN30        -2.9400    -0.1620    -1.2590 hn         1 N85       0.347000
     40 H4           4.8990    -0.8250    -1.7270 h1         1 N85       0.051700
     41 HO4          6.9890    -1.0470    -0.5350 ho         1 N85       0.526000
     42 H5           4.7210     1.5380     0.2380 h1         1 N85       0.069700
     43 H6           5.8160     2.1790    -1.8980 h1         1 N85       0.034700
     44 H6'A         4.5070     1.4300    -2.8200 h1         1 N85       0.034700
     45 HO6          4.2130     3.7020    -2.6760 ho         1 N85       0.504000
@<TRIPOS>BOND
     1     1     2 1   
     2     1    11 1   
     3     1    27 1   
     4     2     3 2   
     5     2     4 1   
     6     4     5 1   
     7     4    28 1   
     8     5     6 2   
     9     5     7 1   
    10     7     8 2   
    11     7    20 1   
    12     8     9 1   
    13     8    29 1   
    14     9    10 ar  
    15     9    15 ar  
    16    10    12 ar  
    17    10    30 1   
    18    11    16 1   
    19    11    24 1   
    20    11    31 1   
    21    12    13 ar  
    22    12    32 1   
    23    13    14 ar  
    24    13    33 1   
    25    14    15 ar  
    26    14    34 1   
    27    15    20 1   
    28    16    17 1   
    29    16    18 1   
    30    16    35 1   
    31    17    36 1   
    32    18    19 1   
    33    18    21 1   
    34    18    37 1   
    35    19    38 1   
    36    20    39 1   
    37    21    22 1   
    38    21    23 1   
    39    21    40 1   
    40    22    41 1   
    41    23    24 1   
    42    23    25 1   
    43    23    42 1   
    44    25    26 1   
    45    25    43 1   
    46    25    44 1   
    47    26    45 1   
@<TRIPOS>SUBSTRUCTURE
     1 N85         1 TEMP              0 ****  ****    0 ROOT
