@<TRIPOS>MOLECULE
N86
   25    26     1     0     0
SMALL
No Charge or Current Charge


@<TRIPOS>ATOM
      1 C1         -53.8810    22.0850     1.9870 ca         1 N86      -0.161000
      2 C2         -52.6880    21.3590     1.8230 ca         1 N86       0.297000
      3 C3         -51.6780    21.8940     0.9870 ca         1 N86      -0.107000
      4 C4         -51.8710    23.1270     0.3390 ca         1 N86      -0.068000
      5 C5         -53.0690    23.8380     0.5160 ca         1 N86      -0.123000
      6 C6         -54.0880    23.3210     1.3450 ca         1 N86      -0.002000
      7 N7         -55.3280    23.9790     1.5740 ns         1 N86      -0.145000
      8 C8         -55.8500    25.1810     1.1130 c          1 N86       0.608300
      9 C9         -57.2230    25.4750     1.6290 ce         1 N86      -0.305200
     10 O10        -55.2670    25.9470     0.3560 o          1 N86      -0.585100
     11 C11        -57.9370    26.5870     1.3200 c2         1 N86      -0.221000
     12 N12        -52.5350    20.1740     2.4610 nb         1 N86      -0.669000
     13 C13        -51.3790    19.4920     2.2890 ca         1 N86       0.357900
     14 C14        -50.3320    19.9560     1.4780 ca         1 N86      -0.178000
     15 C15        -50.4790    21.1820     0.8110 ca         1 N86      -0.048000
     16 H1         -54.6580    21.6760     2.6270 ha         1 N86       0.128000
     17 H2         -51.0930    23.5370    -0.3020 ha         1 N86       0.118000
     18 H3         -53.1820    24.7860     0.0000 ha         1 N86       0.153000
     19 H4         -55.9480    23.4730     2.1920 hn         1 N86       0.153000
     20 H5         -57.6480    24.7250     2.2950 ha         1 N86       0.179000
     21 H7         -58.9370    26.7580     1.7230 ha         1 N86       0.180000
     22 H8         -57.5450    27.3620     0.6570 ha         1 N86       0.180000
     23 H10        -51.2910    18.5430     2.8180 h4         1 N86       0.017100
     24 H11        -49.4240    19.3700     1.3730 ha         1 N86       0.123000
     25 H12        -49.6820    21.5650     0.1760 ha         1 N86       0.118000
@<TRIPOS>BOND
     1     1     2 ar  
     2     1     6 ar  
     3     1    16 1   
     4     2     3 ar  
     5     2    12 ar  
     6     3     4 ar  
     7     3    15 ar  
     8     4     5 ar  
     9     4    17 1   
    10     5     6 ar  
    11     5    18 1   
    12     6     7 1   
    13     7     8 1   
    14     7    19 1   
    15     8     9 1   
    16     8    10 2   
    17     9    11 2   
    18     9    20 1   
    19    11    21 1   
    20    11    22 1   
    21    12    13 ar  
    22    13    14 ar  
    23    13    23 1   
    24    14    15 ar  
    25    14    24 1   
    26    15    25 1   
@<TRIPOS>SUBSTRUCTURE
     1 N86         1 TEMP              0 ****  ****    0 ROOT
