@<TRIPOS>MOLECULE
N86
   25    26     1     0     0
SMALL
abcg2


@<TRIPOS>ATOM
      1 C1         -53.9090    22.0790     1.9920 ca         1 N86      -0.161000
      2 C2         -52.7010    21.3790     1.8170 ca         1 N86       0.297000
      3 C3         -51.6940    21.9290     0.9700 ca         1 N86      -0.107000
      4 C4         -51.9460    23.1650     0.3340 ca         1 N86      -0.068000
      5 C5         -53.1260    23.8360     0.5140 ca         1 N86      -0.123000
      6 C6         -54.1290    23.2870     1.3580 ca         1 N86      -0.002000
      7 N7         -55.3590    23.9170     1.5840 ns         1 N86      -0.145000
      8 C8         -55.8230    25.1240     1.1390 c          1 N86       0.608300
      9 C9         -57.1940    25.4350     1.6290 ce         1 N86      -0.305200
     10 O10        -55.1860    25.8810     0.4120 o          1 N86      -0.585100
     11 C11        -57.8070    26.5670     1.3040 c2         1 N86      -0.221000
     12 N12        -52.5290    20.1890     2.4650 nb         1 N86      -0.669000
     13 C13        -51.3940    19.5490     2.2880 ca         1 N86       0.357900
     14 C14        -50.3400    20.0120     1.4710 ca         1 N86      -0.178000
     15 C15        -50.4940    21.2040     0.8130 ca         1 N86      -0.048000
     16 H1         -54.6660    21.6490     2.6360 ha         1 N86       0.128000
     17 H2         -51.1830    23.5850    -0.3100 ha         1 N86       0.118000
     18 H3         -53.3070    24.7770     0.0240 ha         1 N86       0.153000
     19 H4         -55.9890    23.4030     2.1830 hn         1 N86       0.153000
     20 H5         -57.6780    24.7040     2.2680 ha         1 N86       0.179000
     21 H7         -58.8030    26.7920     1.6640 ha         1 N86       0.180000
     22 H8         -57.3230    27.2980     0.6670 ha         1 N86       0.180000
     23 H10        -51.2830    18.6050     2.8130 h4         1 N86       0.017100
     24 H11        -49.4360    19.4260     1.3770 ha         1 N86       0.123000
     25 H12        -49.7120    21.6010     0.1750 ha         1 N86       0.118000
@<TRIPOS>BOND
     1     1     2 ar  
     2     1     6 ar  
     3     1    16 1   
     4     2     3 ar  
     5     2    12 ar  
     6     3     4 ar  
     7     3    15 ar  
     8     4     5 ar  
     9     4    17 1   
    10     5     6 ar  
    11     5    18 1   
    12     6     7 1   
    13     7     8 1   
    14     7    19 1   
    15     8     9 1   
    16     8    10 2   
    17     9    11 2   
    18     9    20 1   
    19    11    21 1   
    20    11    22 1   
    21    12    13 ar  
    22    13    14 ar  
    23    13    23 1   
    24    14    15 ar  
    25    14    24 1   
    26    15    25 1   
@<TRIPOS>SUBSTRUCTURE
     1 N86         1 TEMP              0 ****  ****    0 ROOT
