@<TRIPOS>MOLECULE
N87
   43    45     1     0     0
SMALL
bcc


@<TRIPOS>ATOM
      1 O1          -3.1690     2.6560    -1.0330 o          1 N87      -0.806800
      2 C2          -3.9170     2.2560    -0.1320 c          1 N87       0.913600
      3 O3          -4.7840     2.9070     0.4930 o          1 N87      -0.806800
      4 C4          -3.7960     0.7650     0.2970 c6         1 N87       0.021000
      5 O5          -4.6100     0.5680     1.4330 oh         1 N87      -0.635800
      6 C6          -2.3720     0.4660     0.6740 c2         1 N87      -0.029200
      7 C7          -1.6990    -0.6170     0.2870 ce         1 N87      -0.179400
      8 C8          -2.3070    -1.6530    -0.6390 c6         1 N87       0.166300
      9 O9          -1.9460    -2.9730    -0.2890 oh         1 N87      -0.618800
     10 C10         -3.8270    -1.5700    -0.6230 c6         1 N87       0.149100
     11 O11         -4.3960    -2.3800    -1.6270 oh         1 N87      -0.608800
     12 C12         -4.2420    -0.1320    -0.8600 c6         1 N87      -0.068400
     13 C13         -0.2820    -0.7950     0.6840 ca         1 N87      -0.029800
     14 C14          0.6770     0.0950     0.2130 ca         1 N87      -0.070000
     15 C15          2.0220    -0.0430     0.5570 ca         1 N87      -0.180600
     16 C16          2.9940     0.9680     0.0630 c          1 N87       0.588300
     17 C17          4.4050     0.5620    -0.1740 ca         1 N87      -0.156600
     18 C18          4.7300    -0.7100    -0.6440 ca         1 N87      -0.085000
     19 C19          6.0510    -1.0360    -0.9190 ca         1 N87      -0.146000
     20 C20          7.0560    -0.1020    -0.7070 ca         1 N87      -0.116000
     21 C21          6.7380     1.1670    -0.2380 ca         1 N87      -0.146000
     22 C22          5.4180     1.5040     0.0130 ca         1 N87      -0.085000
     23 C23          2.4090    -1.0730     1.4100 ca         1 N87      -0.110000
     24 C24          1.4560    -1.9490     1.9090 ca         1 N87      -0.158000
     25 C25          0.1250    -1.8210     1.5410 ca         1 N87      -0.098000
     26 O26          2.6420     2.1140    -0.1420 o          1 N87      -0.508100
     27 HO5         -5.0700     1.4290     1.5010 ho         1 N87       0.440000
     28 H6          -1.8850     1.1750     1.3370 ha         1 N87       0.128000
     29 H8          -1.9670    -1.4300    -1.6620 h1         1 N87       0.039700
     30 HO9         -1.0780    -3.1690    -0.6520 ho         1 N87       0.395000
     31 H10         -4.1750    -1.8870     0.3730 h1         1 N87       0.053700
     32 HO11        -4.0990    -3.2840    -1.4810 ho         1 N87       0.396000
     33 H12         -5.3270    -0.0610    -0.9760 hc         1 N87       0.061700
     34 H12A        -3.7910     0.2220    -1.7920 hc         1 N87       0.061700
     35 H14          0.3720     0.8980    -0.4470 ha         1 N87       0.167000
     36 H18          3.9540    -1.4430    -0.8210 ha         1 N87       0.145500
     37 H19          6.2940    -2.0200    -1.2970 ha         1 N87       0.128000
     38 H20          8.0860    -0.3620    -0.9090 ha         1 N87       0.123000
     39 H21          7.5210     1.8950    -0.0710 ha         1 N87       0.128000
     40 H22          5.1730     2.4950     0.3710 ha         1 N87       0.145500
     41 H23          3.4430    -1.1800     1.7100 ha         1 N87       0.125000
     42 H24          1.7520    -2.7350     2.5910 ha         1 N87       0.122000
     43 H25         -0.6060    -2.5080     1.9450 ha         1 N87       0.145000
@<TRIPOS>BOND
     1     1     2 1   
     2     2     3 1   
     3     2     4 1   
     4     4     5 1   
     5     4     6 1   
     6     4    12 1   
     7     5    27 1   
     8     6     7 2   
     9     6    28 1   
    10     7     8 1   
    11     7    13 1   
    12     8     9 1   
    13     8    10 1   
    14     8    29 1   
    15     9    30 1   
    16    10    11 1   
    17    10    12 1   
    18    10    31 1   
    19    11    32 1   
    20    12    33 1   
    21    12    34 1   
    22    13    14 ar  
    23    13    25 ar  
    24    14    15 ar  
    25    14    35 1   
    26    15    16 1   
    27    15    23 ar  
    28    16    17 1   
    29    16    26 2   
    30    17    18 ar  
    31    17    22 ar  
    32    18    19 ar  
    33    18    36 1   
    34    19    20 ar  
    35    19    37 1   
    36    20    21 ar  
    37    20    38 1   
    38    21    22 ar  
    39    21    39 1   
    40    22    40 1   
    41    23    24 ar  
    42    23    41 1   
    43    24    25 ar  
    44    24    42 1   
    45    25    43 1   
@<TRIPOS>SUBSTRUCTURE
     1 N87         1 TEMP              0 ****  ****    0 ROOT
