@<TRIPOS>MOLECULE
N87
   43    45     1     0     0
SMALL
No Charge or Current Charge


@<TRIPOS>ATOM
      1 O1          -4.1230     2.6230     0.9060 o          1 N87      -0.701500
      2 C2          -4.8490     1.6380     0.9540 c          1 N87       0.703000
      3 O3          -5.8470     1.6170     1.6680 o          1 N87      -0.701500
      4 C4          -4.1930     0.2220     0.6560 c6         1 N87       0.044200
      5 O5          -4.8560    -0.7850     1.4610 oh         1 N87      -0.698000
      6 C6          -2.7050     0.1930     1.0320 c2         1 N87      -0.079200
      7 C7          -1.7170    -0.3480     0.2720 ce         1 N87      -0.179400
      8 C8          -2.0190    -0.9620    -1.1050 c6         1 N87       0.189500
      9 O9          -1.2040    -2.1240    -1.3080 oh         1 N87      -0.681000
     10 C10         -3.5260    -1.3280    -1.2660 c6         1 N87       0.172300
     11 O11         -3.8070    -1.7150    -2.6210 oh         1 N87      -0.671000
     12 C12         -4.4070    -0.1320    -0.8440 c6         1 N87      -0.068400
     13 C13         -0.2950    -0.3090     0.7250 ca         1 N87      -0.029800
     14 C14          0.7190     0.1670    -0.1320 ca         1 N87      -0.052000
     15 C15          2.0680     0.1950     0.2870 ca         1 N87      -0.180600
     16 C16          3.1320     0.7270    -0.6480 c          1 N87       0.588300
     17 C17          4.5370     0.1730    -0.5670 ca         1 N87      -0.156600
     18 C18          4.7740    -1.1740    -0.2070 ca         1 N87      -0.067000
     19 C19          6.0860    -1.6760    -0.1520 ca         1 N87      -0.128000
     20 C20          7.1730    -0.8450    -0.4640 ca         1 N87      -0.098000
     21 C21          6.9480     0.4890    -0.8400 ca         1 N87      -0.128000
     22 C22          5.6370     0.9950    -0.8960 ca         1 N87      -0.067000
     23 C23          2.3870    -0.2330     1.5940 ca         1 N87      -0.092000
     24 C24          1.3800    -0.7040     2.4510 ca         1 N87      -0.140000
     25 C25          0.0450    -0.7440     2.0190 ca         1 N87      -0.080000
     26 O26          2.8560     1.5990    -1.4650 o          1 N87      -0.508100
     27 HO5         -5.5770    -0.2770     1.9120 ho         1 N87       0.479000
     28 H6          -2.4640     0.6520     1.9910 ha         1 N87       0.178000
     29 H8          -1.7710    -0.2040    -1.8630 h1         1 N87       0.039700
     30 HO9         -0.4180    -1.9920    -0.7350 ho         1 N87       0.434000
     31 H10         -3.7470    -2.1700    -0.5930 h1         1 N87       0.053700
     32 HO11        -3.0550    -2.2960    -2.8770 ho         1 N87       0.435000
     33 H12         -5.4660    -0.3530    -1.0330 hc         1 N87       0.061700
     34 H12A        -4.1570     0.7370    -1.4680 hc         1 N87       0.061700
     35 H14          0.4560     0.5190    -1.1280 ha         1 N87       0.149000
     36 H18          3.9440    -1.8400     0.0200 ha         1 N87       0.127500
     37 H19          6.2580    -2.7120     0.1290 ha         1 N87       0.110000
     38 H20          8.1880    -1.2350    -0.4220 ha         1 N87       0.105000
     39 H21          7.7890     1.1330    -1.0890 ha         1 N87       0.110000
     40 H22          5.4780     2.0310    -1.1900 ha         1 N87       0.127500
     41 H23          3.4120    -0.1900     1.9560 ha         1 N87       0.107000
     42 H24          1.6340    -1.0350     3.4560 ha         1 N87       0.104000
     43 H25         -0.7270    -1.1160     2.6900 ha         1 N87       0.127000
@<TRIPOS>BOND
     1     1     2 1   
     2     2     3 1   
     3     2     4 1   
     4     4     5 1   
     5     4     6 1   
     6     4    12 1   
     7     5    27 1   
     8     6     7 2   
     9     6    28 1   
    10     7     8 1   
    11     7    13 1   
    12     8     9 1   
    13     8    10 1   
    14     8    29 1   
    15     9    30 1   
    16    10    11 1   
    17    10    12 1   
    18    10    31 1   
    19    11    32 1   
    20    12    33 1   
    21    12    34 1   
    22    13    14 ar  
    23    13    25 ar  
    24    14    15 ar  
    25    14    35 1   
    26    15    16 1   
    27    15    23 ar  
    28    16    17 1   
    29    16    26 2   
    30    17    18 ar  
    31    17    22 ar  
    32    18    19 ar  
    33    18    36 1   
    34    19    20 ar  
    35    19    37 1   
    36    20    21 ar  
    37    20    38 1   
    38    21    22 ar  
    39    21    39 1   
    40    22    40 1   
    41    23    24 ar  
    42    23    41 1   
    43    24    25 ar  
    44    24    42 1   
    45    25    43 1   
@<TRIPOS>SUBSTRUCTURE
     1 N87         1 TEMP              0 ****  ****    0 ROOT
