@<TRIPOS>MOLECULE
N88
   37    37     1     0     0
SMALL
bcc


@<TRIPOS>ATOM
      1 C           -2.6500    -1.8990     0.7030 c          1 N88       0.911600
      2 C1          -2.0780    -0.7760    -0.2090 c6         1 N88       0.019000
      3 O1          -3.2970    -2.7800     0.0950 o          1 N88      -0.805800
      4 C2          -2.7670     0.5500     0.1170 c6         1 N88      -0.067400
      5 O2          -2.4200    -1.8220     1.9170 o          1 N88      -0.805800
      6 C3          -2.0230     1.7140    -0.5070 c6         1 N88       0.147100
      7 O3          -2.7780     2.8900    -0.3190 oh         1 N88      -0.608800
      8 C4          -0.6490     1.8300     0.1390 c6         1 N88       0.174300
      9 O4           0.0750     2.8100    -0.5760 oh         1 N88      -0.625800
     10 C5           0.0570     0.4930     0.1320 ce         1 N88      -0.261400
     11 C6          -0.5930    -0.6630     0.0060 c2         1 N88      -0.024200
     12 C13          1.5250     0.5500     0.4100 c          1 N88       0.691300
     13 N14          2.2800    -0.3670    -0.2110 ns         1 N88      -0.571900
     14 C15          3.7270    -0.5640    -0.0610 c3         1 N88       0.141400
     15 C16          4.0710    -1.7980    -0.8930 c3         1 N88      -0.101433
     16 C17          4.4910     0.6450    -0.6050 c3         1 N88      -0.101433
     17 C18          4.0940    -0.8310     1.3980 c3         1 N88      -0.101433
     18 O19          1.9640     1.4050     1.1750 o          1 N88      -0.655100
     19 O30         -2.2930    -1.1440    -1.5520 oh         1 N88      -0.636800
     20 H2          -3.7980     0.5170    -0.2440 hc         1 N88       0.062700
     21 H2A         -2.8070     0.6870     1.2010 hc         1 N88       0.062700
     22 H3          -1.8800     1.5150    -1.5800 h1         1 N88       0.050700
     23 HO3         -2.2940     3.6200    -0.7190 ho         1 N88       0.399000
     24 H4          -0.7970     2.1460     1.1820 h1         1 N88       0.054700
     25 HO4          0.8060     3.1040    -0.0230 ho         1 N88       0.413000
     26 H6          -0.0420    -1.5990     0.0380 ha         1 N88       0.120000
     27 HN14         1.8210    -0.9370    -0.9040 hn         1 N88       0.319500
     28 H16          3.8050    -1.6590    -1.9430 hc         1 N88       0.040033
     29 H16A         5.1420    -1.9960    -0.8450 hc         1 N88       0.040033
     30 H16B         3.5510    -2.6830    -0.5210 hc         1 N88       0.040033
     31 H17          4.2390     1.5550    -0.0620 hc         1 N88       0.040033
     32 H17A         5.5660     0.4850    -0.5120 hc         1 N88       0.040033
     33 H17B         4.2640     0.8000    -1.6610 hc         1 N88       0.040033
     34 H18          3.5140    -1.6670     1.7940 hc         1 N88       0.040033
     35 H18A         5.1500    -1.0950     1.4680 hc         1 N88       0.040033
     36 H18B         3.9240     0.0370     2.0310 hc         1 N88       0.040033
     37 HO30        -2.8330    -1.9550    -1.4550 ho         1 N88       0.440000
@<TRIPOS>BOND
     1     1     2 1   
     2     1     3 1   
     3     1     5 1   
     4     2     4 1   
     5     2    11 1   
     6     2    19 1   
     7     4     6 1   
     8     4    20 1   
     9     4    21 1   
    10     6     7 1   
    11     6     8 1   
    12     6    22 1   
    13     7    23 1   
    14     8     9 1   
    15     8    10 1   
    16     8    24 1   
    17     9    25 1   
    18    10    11 2   
    19    10    12 1   
    20    11    26 1   
    21    12    13 1   
    22    12    18 2   
    23    13    14 1   
    24    13    27 1   
    25    14    15 1   
    26    14    16 1   
    27    14    17 1   
    28    15    28 1   
    29    15    29 1   
    30    15    30 1   
    31    16    31 1   
    32    16    32 1   
    33    16    33 1   
    34    17    34 1   
    35    17    35 1   
    36    17    36 1   
    37    19    37 1   
@<TRIPOS>SUBSTRUCTURE
     1 N88         1 TEMP              0 ****  ****    0 ROOT
