@<TRIPOS>MOLECULE
N88
   37    37     1     0     0
SMALL
No Charge or Current Charge


@<TRIPOS>ATOM
      1 C           -2.5910    -2.0540     0.2250 c          1 N88       0.701000
      2 C1          -2.0750    -0.7150    -0.4590 c6         1 N88       0.042200
      3 O1          -3.2340    -2.8000    -0.5050 o          1 N88      -0.700500
      4 C2          -2.8560     0.4890     0.1380 c6         1 N88      -0.067400
      5 O2          -1.9550    -2.4880     1.1760 o          1 N88      -0.700500
      6 C3          -2.1910     1.8240    -0.2510 c6         1 N88       0.170300
      7 O3          -2.9770     2.9350     0.2120 oh         1 N88      -0.671000
      8 C4          -0.7500     1.8900     0.3430 c6         1 N88       0.197500
      9 O4          -0.0840     3.0560    -0.1500 oh         1 N88      -0.688000
     10 C5           0.0770     0.6220     0.0390 ce         1 N88      -0.261400
     11 C6          -0.5570    -0.5420    -0.3000 c2         1 N88      -0.074200
     12 C13          1.5760     0.7290     0.2010 c          1 N88       0.624300
     13 N14          2.2920    -0.4250    -0.0520 ns         1 N88      -0.504900
     14 C15          3.7470    -0.6140     0.0260 c3         1 N88       0.141400
     15 C16          4.0310    -2.0870    -0.3530 c3         1 N88      -0.101433
     16 C17          4.4750     0.3130    -0.9810 c3         1 N88      -0.101433
     17 C18          4.2560    -0.3590     1.4680 c3         1 N88      -0.101433
     18 O19          2.1200     1.7730     0.5350 o          1 N88      -0.655100
     19 O30         -2.3480    -0.7750    -1.8810 oh         1 N88      -0.699000
     20 H2          -3.9000     0.4700    -0.2030 hc         1 N88       0.062700
     21 H2A         -2.8860     0.4050     1.2330 hc         1 N88       0.062700
     22 H3          -2.1120     1.8640    -1.3480 h1         1 N88       0.050700
     23 HO3         -2.3770     3.7120     0.1400 ho         1 N88       0.438000
     24 H4          -0.8410     1.9580     1.4380 h1         1 N88       0.054700
     25 HO4          0.8690     2.8850     0.0690 ho         1 N88       0.452000
     26 H6          -0.0030    -1.4590    -0.4950 ha         1 N88       0.170000
     27 HN14         1.7440    -1.2280    -0.3240 hn         1 N88       0.319500
     28 H16          3.6790    -2.3060    -1.3680 hc         1 N88       0.040033
     29 H16A         5.1060    -2.3020    -0.3150 hc         1 N88       0.040033
     30 H16B         3.5260    -2.7740     0.3380 hc         1 N88       0.040033
     31 H17          4.3560     1.3700    -0.7180 hc         1 N88       0.040033
     32 H17A         5.5500     0.0970    -0.9980 hc         1 N88       0.040033
     33 H17B         4.0850     0.1690    -1.9960 hc         1 N88       0.040033
     34 H18          3.7110    -0.9790     2.1890 hc         1 N88       0.040033
     35 H18A         5.3220    -0.6020     1.5510 hc         1 N88       0.040033
     36 H18B         4.1340     0.6900     1.7610 hc         1 N88       0.040033
     37 HO30        -2.8530    -1.6220    -1.9800 ho         1 N88       0.479000
@<TRIPOS>BOND
     1     1     2 1   
     2     1     3 1   
     3     1     5 1   
     4     2     4 1   
     5     2    11 1   
     6     2    19 1   
     7     4     6 1   
     8     4    20 1   
     9     4    21 1   
    10     6     7 1   
    11     6     8 1   
    12     6    22 1   
    13     7    23 1   
    14     8     9 1   
    15     8    10 1   
    16     8    24 1   
    17     9    25 1   
    18    10    11 2   
    19    10    12 1   
    20    11    26 1   
    21    12    13 1   
    22    12    18 2   
    23    13    14 1   
    24    13    27 1   
    25    14    15 1   
    26    14    16 1   
    27    14    17 1   
    28    15    28 1   
    29    15    29 1   
    30    15    30 1   
    31    16    31 1   
    32    16    32 1   
    33    16    33 1   
    34    17    34 1   
    35    17    35 1   
    36    17    36 1   
    37    19    37 1   
@<TRIPOS>SUBSTRUCTURE
     1 N88         1 TEMP              0 ****  ****    0 ROOT
