@<TRIPOS>MOLECULE
N8A
   39    40     1     0     0
SMALL
No Charge or Current Charge


@<TRIPOS>ATOM
      1 CAS         -1.2830     8.0230    13.6020 ca         1 N8A      -0.158000
      2 CAT         -0.7790     8.5620    14.7960 ca         1 N8A      -0.070000
      3 CAU          0.5980     8.8300    14.8690 ca         1 N8A      -0.165000
      4 CAV          1.4100     8.5510    13.7560 ca         1 N8A       0.337900
      5 NAW          0.9250     8.0300    12.6040 nb         1 N8A      -0.680000
      6 CAR         -0.4010     7.7700    12.5340 ca         1 N8A       0.340300
      7 CAQ         -0.9020     7.1820    11.2260 c3         1 N8A      -0.155700
      8 CAP         -0.7130     5.6540    11.1430 c3         1 N8A       0.123000
      9 NAN         -1.3570     4.9400    12.2510 ns         1 N8A      -0.498900
     10 CAM         -2.7110     4.7640    12.3850 c          1 N8A       0.656100
     11 OAO         -3.5110     5.1750    11.5580 o          1 N8A      -0.669100
     12 NAL         -3.0580     4.0840    13.5410 ns         1 N8A      -0.158000
     13 CAC         -4.3090     3.6740    14.1130 ca         1 N8A      -0.143000
     14 CAD         -4.2120     3.0090    15.3530 ca         1 N8A      -0.006000
     15 CAB         -5.6030     3.8740    13.5520 ca         1 N8A       0.222100
     16 OAK         -5.8110     4.5010    12.3630 oh         1 N8A      -0.572100
     17 CAA         -6.7420     3.4130    14.2310 ca         1 N8A      -0.171000
     18 CAF         -6.6310     2.7540    15.4630 ca         1 N8A       0.010000
     19 CAE         -5.3610     2.5500    16.0280 ca         1 N8A      -0.306500
     20 SAG         -5.1980     1.7080    17.6040 sy         1 N8A       1.132600
     21 OAH         -6.4930     1.6550    18.2790 o          1 N8A      -0.548000
     22 OAI         -3.9630     2.1070    18.2780 o          1 N8A      -0.548000
     23 NAJ         -4.9460     0.1660    17.1250 n8         1 N8A      -1.001100
     24 H1          -2.3420     7.8000    13.5040 ha         1 N8A       0.131000
     25 H2          -1.4350     8.7670    15.6400 ha         1 N8A       0.124000
     26 H3           1.0370     9.2480    15.7700 ha         1 N8A       0.126000
     27 H4           2.4800     8.7500    13.7870 h4         1 N8A       0.019100
     28 H5          -0.3810     7.6470    10.3810 hc         1 N8A       0.073700
     29 H6          -1.9630     7.4220    11.0920 hc         1 N8A       0.073700
     30 H7          -1.1220     5.2850    10.1930 h1         1 N8A       0.065200
     31 H8           0.3600     5.4210    11.1570 h1         1 N8A       0.065200
     32 H9          -0.7670     4.5580    12.9800 hn         1 N8A       0.319500
     33 H10         -2.2610     3.8230    14.1060 hn         1 N8A       0.154000
     34 H11         -3.2300     2.8450    15.7960 ha         1 N8A       0.128000
     35 H12         -4.9200     4.7860    12.0050 ho         1 N8A       0.527000
     36 H13         -7.7250     3.5700    13.7960 ha         1 N8A       0.136000
     37 H14         -7.5330     2.4090    15.9690 ha         1 N8A       0.142000
     38 H15         -5.6700    -0.3180    17.6490 hn         1 N8A       0.471000
     39 H16         -5.3000     0.1780    16.1720 hn         1 N8A       0.471000
@<TRIPOS>BOND
     1     1     2 ar  
     2     1     6 ar  
     3     1    24 1   
     4     2     3 ar  
     5     2    25 1   
     6     3     4 ar  
     7     3    26 1   
     8     4     5 ar  
     9     4    27 1   
    10     5     6 ar  
    11     6     7 1   
    12     7     8 1   
    13     7    28 1   
    14     7    29 1   
    15     8     9 1   
    16     8    30 1   
    17     8    31 1   
    18     9    10 1   
    19     9    32 1   
    20    10    11 2   
    21    10    12 1   
    22    12    13 1   
    23    12    33 1   
    24    13    14 ar  
    25    13    15 ar  
    26    14    19 ar  
    27    14    34 1   
    28    15    16 1   
    29    15    17 ar  
    30    16    35 1   
    31    17    18 ar  
    32    17    36 1   
    33    18    19 ar  
    34    18    37 1   
    35    19    20 1   
    36    20    21 2   
    37    20    22 2   
    38    20    23 1   
    39    23    38 1   
    40    23    39 1   
@<TRIPOS>SUBSTRUCTURE
     1 N8A         1 TEMP              0 ****  ****    0 ROOT
