@<TRIPOS>MOLECULE
N8A
   39    40     1     0     0
SMALL
abcg2


@<TRIPOS>ATOM
      1 CAS         -1.4780     8.0720    13.2800 ca         1 N8A      -0.158000
      2 CAT         -1.0530     8.8050    14.3760 ca         1 N8A      -0.070000
      3 CAU          0.2970     9.0940    14.5010 ca         1 N8A      -0.165000
      4 CAV          1.1570     8.6300    13.5160 ca         1 N8A       0.337900
      5 NAW          0.7560     7.9270    12.4640 nb         1 N8A      -0.680000
      6 CAR         -0.5410     7.6500    12.3390 ca         1 N8A       0.340300
      7 CAQ         -0.9500     6.8130    11.1640 c3         1 N8A      -0.155700
      8 CAP         -0.6120     5.3350    11.3790 c3         1 N8A       0.123000
      9 NAN         -1.1460     4.7920    12.6110 ns         1 N8A      -0.498900
     10 CAM         -2.4580     4.6050    12.8040 c          1 N8A       0.656100
     11 OAO         -3.2870     4.7390    11.8920 o          1 N8A      -0.669100
     12 NAL         -2.8320     4.2710    14.0710 ns         1 N8A      -0.158000
     13 CAC         -4.1160     3.8720    14.4830 ca         1 N8A      -0.143000
     14 CAD         -4.1980     2.8520    15.4180 ca         1 N8A      -0.006000
     15 CAB         -5.2980     4.5240    14.0700 ca         1 N8A       0.222100
     16 OAK         -5.3040     5.5320    13.1980 oh         1 N8A      -0.572100
     17 CAA         -6.5150     4.1260    14.6220 ca         1 N8A      -0.171000
     18 CAF         -6.5890     3.1260    15.5730 ca         1 N8A       0.010000
     19 CAE         -5.4210     2.4890    15.9630 ca         1 N8A      -0.306500
     20 SAG         -5.4650     1.2200    17.1840 sy         1 N8A       1.132600
     21 OAH         -6.8080     1.1920    17.7500 o          1 N8A      -0.548000
     22 OAI         -4.3400     1.3720    18.0960 o          1 N8A      -0.548000
     23 NAJ         -5.1200    -0.1180    16.2760 n8         1 N8A      -1.001100
     24 H1          -2.5250     7.8280    13.1490 ha         1 N8A       0.131000
     25 H2          -1.7630     9.1440    15.1190 ha         1 N8A       0.124000
     26 H3           0.6800     9.6620    15.3380 ha         1 N8A       0.126000
     27 H4           2.2200     8.8370    13.5800 h4         1 N8A       0.019100
     28 H5          -0.4260     7.1500    10.2680 hc         1 N8A       0.073700
     29 H6          -2.0180     6.9250    10.9750 hc         1 N8A       0.073700
     30 H7          -0.9620     4.7500    10.5280 h1         1 N8A       0.065200
     31 H8           0.4690     5.2100    11.4300 h1         1 N8A       0.065200
     32 H9          -0.5160     4.7050    13.3920 hn         1 N8A       0.319500
     33 H10         -2.0970     4.1000    14.7420 hn         1 N8A       0.154000
     34 H11         -3.2880     2.3520    15.7280 ha         1 N8A       0.128000
     35 H12         -4.5660     5.3820    12.5460 ho         1 N8A       0.527000
     36 H13         -7.4150     4.6360    14.3050 ha         1 N8A       0.136000
     37 H14         -7.5470     2.8520    15.9920 ha         1 N8A       0.142000
     38 H15         -4.8620    -0.9050    16.8650 hn         1 N8A       0.471000
     39 H16         -5.8860    -0.3820    15.6640 hn         1 N8A       0.471000
@<TRIPOS>BOND
     1     1     2 ar  
     2     1     6 ar  
     3     1    24 1   
     4     2     3 ar  
     5     2    25 1   
     6     3     4 ar  
     7     3    26 1   
     8     4     5 ar  
     9     4    27 1   
    10     5     6 ar  
    11     6     7 1   
    12     7     8 1   
    13     7    28 1   
    14     7    29 1   
    15     8     9 1   
    16     8    30 1   
    17     8    31 1   
    18     9    10 1   
    19     9    32 1   
    20    10    11 2   
    21    10    12 1   
    22    12    13 1   
    23    12    33 1   
    24    13    14 ar  
    25    13    15 ar  
    26    14    19 ar  
    27    14    34 1   
    28    15    16 1   
    29    15    17 ar  
    30    16    35 1   
    31    17    18 ar  
    32    17    36 1   
    33    18    19 ar  
    34    18    37 1   
    35    19    20 1   
    36    20    21 2   
    37    20    22 2   
    38    20    23 1   
    39    23    38 1   
    40    23    39 1   
@<TRIPOS>SUBSTRUCTURE
     1 N8A         1 TEMP              0 ****  ****    0 ROOT
