@<TRIPOS>MOLECULE
N8C
   28    27     1     0     0
SMALL
No Charge or Current Charge


@<TRIPOS>ATOM
      1 O1           4.5750    -0.1560     1.1480 o          1 N8C      -0.399500
      2 N1           4.0970    -0.0570     0.0120 no         1 N8C       0.582000
      3 O2           4.5830    -0.5700    -1.0030 o          1 N8C      -0.399500
      4 C1           2.7950     0.7290    -0.1440 c3         1 N8C      -0.046400
      5 C2           1.5480    -0.1720     0.0250 c3         1 N8C      -0.085400
      6 C3           0.2240     0.6080    -0.1300 c3         1 N8C      -0.076400
      7 C4          -1.0260    -0.2850     0.0370 c3         1 N8C      -0.074400
      8 C5          -2.3500     0.4960    -0.1180 c3         1 N8C      -0.075400
      9 C6          -3.5990    -0.3960     0.0480 c3         1 N8C      -0.075400
     10 C7          -4.9230     0.3840    -0.1060 c3         1 N8C      -0.074400
     11 C8          -6.1710    -0.5060     0.0600 c3         1 N8C      -0.089100
     12 H1           2.8200     1.5190     0.6160 h1         1 N8C       0.091700
     13 H1A          2.8260     1.1810    -1.1430 h1         1 N8C       0.091700
     14 H2           1.5830    -0.9790    -0.7190 hc         1 N8C       0.068700
     15 H2A          1.5760    -0.6460     1.0140 hc         1 N8C       0.068700
     16 H3           0.1920     1.4150     0.6130 hc         1 N8C       0.041700
     17 H3A          0.1990     1.0820    -1.1200 hc         1 N8C       0.041700
     18 H4          -0.9940    -1.0920    -0.7060 hc         1 N8C       0.042700
     19 H4A         -1.0010    -0.7590     1.0260 hc         1 N8C       0.042700
     20 H5          -2.3810     1.3020     0.6250 hc         1 N8C       0.037700
     21 H5A         -2.3750     0.9700    -1.1080 hc         1 N8C       0.037700
     22 H6          -3.5680    -1.2030    -0.6940 hc         1 N8C       0.038700
     23 H6A         -3.5750    -0.8700     1.0380 hc         1 N8C       0.038700
     24 H7          -4.9600     1.1900     0.6360 hc         1 N8C       0.036700
     25 H7A         -4.9530     0.8570    -1.0960 hc         1 N8C       0.036700
     26 H8          -6.1820    -1.3030    -0.6930 hc         1 N8C       0.032700
     27 H8A         -6.1890    -0.9670     1.0540 hc         1 N8C       0.032700
     28 H8B         -7.0840     0.0900    -0.0580 hc         1 N8C       0.032700
@<TRIPOS>BOND
     1     1     2 1   
     2     2     3 1   
     3     2     4 1   
     4     4     5 1   
     5     4    12 1   
     6     4    13 1   
     7     5     6 1   
     8     5    14 1   
     9     5    15 1   
    10     6     7 1   
    11     6    16 1   
    12     6    17 1   
    13     7     8 1   
    14     7    18 1   
    15     7    19 1   
    16     8     9 1   
    17     8    20 1   
    18     8    21 1   
    19     9    10 1   
    20     9    22 1   
    21     9    23 1   
    22    10    11 1   
    23    10    24 1   
    24    10    25 1   
    25    11    26 1   
    26    11    27 1   
    27    11    28 1   
@<TRIPOS>SUBSTRUCTURE
     1 N8C         1 TEMP              0 ****  ****    0 ROOT
