@<TRIPOS>MOLECULE
N8C
   28    27     1     0     0
SMALL
bcc


@<TRIPOS>ATOM
      1 O1           4.0630    -1.0830     0.5200 o          1 N8C      -0.209500
      2 N1           4.0260     0.0110     0.0150 no         1 N8C       0.231300
      3 O2           5.0050     0.6460    -0.3000 o          1 N8C      -0.209500
      4 C1           2.7010     0.6520    -0.2380 c3         1 N8C      -0.075700
      5 C2           1.5090    -0.2250     0.0710 c3         1 N8C      -0.085400
      6 C3           0.2170     0.5400    -0.2050 c3         1 N8C      -0.076400
      7 C4          -1.0250    -0.2960     0.0740 c3         1 N8C      -0.074400
      8 C5          -2.3220     0.4630    -0.1790 c3         1 N8C      -0.075400
      9 C6          -3.5670    -0.3670     0.1040 c3         1 N8C      -0.075400
     10 C7          -4.8660     0.3900    -0.1480 c3         1 N8C      -0.074400
     11 C8          -6.1050    -0.4400     0.1620 c3         1 N8C      -0.089100
     12 H1           2.7080     1.5590     0.3690 h1         1 N8C       0.091700
     13 H1A          2.7250     0.9570    -1.2850 h1         1 N8C       0.091700
     14 H2           1.5360    -1.1290    -0.5400 hc         1 N8C       0.068700
     15 H2A          1.5280    -0.5360     1.1170 hc         1 N8C       0.068700
     16 H3           0.1920     1.4450     0.4100 hc         1 N8C       0.041700
     17 H3A          0.2030     0.8750    -1.2470 hc         1 N8C       0.041700
     18 H4          -1.0040    -1.1960    -0.5490 hc         1 N8C       0.042700
     19 H4A         -1.0040    -0.6420     1.1130 hc         1 N8C       0.042700
     20 H5          -2.3390     1.3650     0.4420 hc         1 N8C       0.037700
     21 H5A         -2.3430     0.8080    -1.2190 hc         1 N8C       0.037700
     22 H6          -3.5510    -1.2710    -0.5150 hc         1 N8C       0.038700
     23 H6A         -3.5450    -0.7100     1.1440 hc         1 N8C       0.038700
     24 H7          -4.8780     1.3010     0.4580 hc         1 N8C       0.036700
     25 H7A         -4.8960     0.7190    -1.1910 hc         1 N8C       0.036700
     26 H8          -6.1370    -1.3450    -0.4480 hc         1 N8C       0.032700
     27 H8A         -6.1200    -0.7490     1.2080 hc         1 N8C       0.032700
     28 H8B         -7.0210     0.1190    -0.0310 hc         1 N8C       0.032700
@<TRIPOS>BOND
     1     1     2 1   
     2     2     3 1   
     3     2     4 1   
     4     4     5 1   
     5     4    12 1   
     6     4    13 1   
     7     5     6 1   
     8     5    14 1   
     9     5    15 1   
    10     6     7 1   
    11     6    16 1   
    12     6    17 1   
    13     7     8 1   
    14     7    18 1   
    15     7    19 1   
    16     8     9 1   
    17     8    20 1   
    18     8    21 1   
    19     9    10 1   
    20     9    22 1   
    21     9    23 1   
    22    10    11 1   
    23    10    24 1   
    24    10    25 1   
    25    11    26 1   
    26    11    27 1   
    27    11    28 1   
@<TRIPOS>SUBSTRUCTURE
     1 N8C         1 TEMP              0 ****  ****    0 ROOT
