@<TRIPOS>MOLECULE
N8E
   62    61     1     0     0
SMALL
abcg2


@<TRIPOS>ATOM
      1 C01         -1.9100    -0.7500    11.8680 c3         1 N8E      -0.088100
      2 C02         -1.7730     0.1890    10.6770 c3         1 N8E      -0.075400
      3 C03         -1.0210    -0.4400     9.5110 c3         1 N8E      -0.075400
      4 C04         -0.8760     0.4930     8.3160 c3         1 N8E      -0.075400
      5 C05         -0.1280    -0.1340     7.1460 c3         1 N8E      -0.073400
      6 C06          0.0110     0.8120     5.9600 c3         1 N8E      -0.075400
      7 C07          0.7580     0.1950     4.7820 c3         1 N8E      -0.078400
      8 C08          0.8760     1.1740     3.6310 c3         1 N8E       0.161600
      9 O09          1.5790     0.5830     2.5640 os         1 N8E      -0.448000
     10 C10          1.7540     1.4640     1.4840 c3         1 N8E       0.163600
     11 C11          2.5300     0.7920     0.3820 c3         1 N8E       0.162600
     12 O12          1.7660    -0.2450    -0.1810 os         1 N8E      -0.435000
     13 C13          2.4260    -0.8860    -1.2420 c3         1 N8E       0.161600
     14 C14          1.5160    -1.9110    -1.8700 c3         1 N8E       0.161600
     15 O15          0.4200    -1.2690    -2.4700 os         1 N8E      -0.435000
     16 C16         -0.4050    -2.1540    -3.1830 c3         1 N8E       0.162600
     17 C17         -1.5730    -1.4060    -3.7710 c3         1 N8E       0.161600
     18 O18         -1.1160    -0.4650    -4.7090 os         1 N8E      -0.434000
     19 C19         -2.1680     0.2260    -5.3340 c3         1 N8E       0.161600
     20 C20         -1.6130     1.2630    -6.2760 c3         1 N8E       0.162600
     21 O21         -0.9080     0.6360    -7.3170 os         1 N8E      -0.434000
     22 C22         -0.3930     1.5510    -8.2510 c3         1 N8E       0.160600
     23 C23          0.4040     0.8190    -9.3010 c3         1 N8E       0.163600
     24 O24         -0.4530    -0.0070   -10.0550 oh         1 N8E      -0.709000
     25 H011        -2.4620    -0.2860    12.6860 hc         1 N8E       0.031367
     26 H012        -2.4410    -1.6620    11.5880 hc         1 N8E       0.031367
     27 H013        -0.9320    -1.0440    12.2530 hc         1 N8E       0.031367
     28 H021        -2.7670     0.5000    10.3390 hc         1 N8E       0.036700
     29 H022        -1.2590     1.1050    10.9860 hc         1 N8E       0.036700
     30 H031        -0.0270    -0.7550     9.8490 hc         1 N8E       0.037700
     31 H032        -1.5380    -1.3550     9.1990 hc         1 N8E       0.037700
     32 H041        -1.8700     0.8100     7.9810 hc         1 N8E       0.036700
     33 H042        -0.3570     1.4060     8.6290 hc         1 N8E       0.036700
     34 H051         0.8670    -0.4500     7.4780 hc         1 N8E       0.039200
     35 H052        -0.6470    -1.0450     6.8290 hc         1 N8E       0.039200
     36 H061        -0.9850     1.1300     5.6330 hc         1 N8E       0.036700
     37 H062         0.5300     1.7210     6.2820 hc         1 N8E       0.036700
     38 H071         1.7570    -0.1150     5.1020 hc         1 N8E       0.052700
     39 H072         0.2350    -0.7070     4.4480 hc         1 N8E       0.052700
     40 H081        -0.1270     1.4870     3.3030 h1         1 N8E       0.017200
     41 H082         1.3920     2.0840     3.9710 h1         1 N8E       0.017200
     42 H101         0.7860     1.8130     1.0990 h1         1 N8E       0.028700
     43 H102         2.3120     2.3590     1.7940 h1         1 N8E       0.028700
     44 H111         2.7720     1.5540    -0.3720 h1         1 N8E       0.027200
     45 H112         3.4870     0.4140     0.7710 h1         1 N8E       0.027200
     46 H131         2.7450    -0.1590    -2.0040 h1         1 N8E       0.027700
     47 H132         3.3330    -1.4000    -0.8930 h1         1 N8E       0.027700
     48 H141         2.1030    -2.4710    -2.6110 h1         1 N8E       0.028200
     49 H142         1.1840    -2.6370    -1.1130 h1         1 N8E       0.028200
     50 H161         0.1590    -2.6580    -3.9810 h1         1 N8E       0.027700
     51 H162        -0.8030    -2.9430    -2.5300 h1         1 N8E       0.027700
     52 H171        -2.2420    -2.1400    -4.2410 h1         1 N8E       0.027700
     53 H172        -2.1500    -0.9160    -2.9740 h1         1 N8E       0.027700
     54 H191        -2.8240    -0.4690    -5.8790 h1         1 N8E       0.028200
     55 H192        -2.7970     0.7420    -4.5960 h1         1 N8E       0.028200
     56 H201        -2.4560     1.8520    -6.6650 h1         1 N8E       0.027200
     57 H202        -0.9660     1.9600    -5.7250 h1         1 N8E       0.027200
     58 H221        -1.2010     2.1270    -8.7250 h1         1 N8E       0.025700
     59 H222         0.2720     2.2790    -7.7650 h1         1 N8E       0.025700
     60 H231         0.8960     1.5760    -9.9240 h1         1 N8E       0.024700
     61 H232         1.2010     0.2430    -8.8130 h1         1 N8E       0.024700
     62 H24          0.0780    -0.4670   -10.7110 ho         1 N8E       0.499000
@<TRIPOS>BOND
     1     1     2 1   
     2     1    25 1   
     3     1    26 1   
     4     1    27 1   
     5     2     3 1   
     6     2    28 1   
     7     2    29 1   
     8     3     4 1   
     9     3    30 1   
    10     3    31 1   
    11     4     5 1   
    12     4    32 1   
    13     4    33 1   
    14     5     6 1   
    15     5    34 1   
    16     5    35 1   
    17     6     7 1   
    18     6    36 1   
    19     6    37 1   
    20     7     8 1   
    21     7    38 1   
    22     7    39 1   
    23     8     9 1   
    24     8    40 1   
    25     8    41 1   
    26     9    10 1   
    27    10    11 1   
    28    10    42 1   
    29    10    43 1   
    30    11    12 1   
    31    11    44 1   
    32    11    45 1   
    33    12    13 1   
    34    13    14 1   
    35    13    46 1   
    36    13    47 1   
    37    14    15 1   
    38    14    48 1   
    39    14    49 1   
    40    15    16 1   
    41    16    17 1   
    42    16    50 1   
    43    16    51 1   
    44    17    18 1   
    45    17    52 1   
    46    17    53 1   
    47    18    19 1   
    48    19    20 1   
    49    19    54 1   
    50    19    55 1   
    51    20    21 1   
    52    20    56 1   
    53    20    57 1   
    54    21    22 1   
    55    22    23 1   
    56    22    58 1   
    57    22    59 1   
    58    23    24 1   
    59    23    60 1   
    60    23    61 1   
    61    24    62 1   
@<TRIPOS>SUBSTRUCTURE
     1 N8E         1 TEMP              0 ****  ****    0 ROOT
