@<TRIPOS>MOLECULE
N8E
   62    61     1     0     0
SMALL
No Charge or Current Charge


@<TRIPOS>ATOM
      1 C01         -1.8890    -1.6090    12.0080 c3         1 N8E      -0.088100
      2 C02         -1.7810    -0.4900    10.9550 c3         1 N8E      -0.075400
      3 C03         -1.0040    -0.9210     9.6920 c3         1 N8E      -0.075400
      4 C04         -0.8960     0.2020     8.6360 c3         1 N8E      -0.075400
      5 C05         -0.1190    -0.2300     7.3730 c3         1 N8E      -0.073400
      6 C06         -0.0110     0.8930     6.3180 c3         1 N8E      -0.075400
      7 C07          0.7650     0.4620     5.0540 c3         1 N8E      -0.078400
      8 C08          0.8710     1.5840     4.0030 c3         1 N8E       0.161600
      9 O09          1.6070     1.0670     2.8840 os         1 N8E      -0.448000
     10 C10          1.7900     2.0070     1.8060 c3         1 N8E       0.163600
     11 C11          2.5830     1.3230     0.6660 c3         1 N8E       0.162600
     12 O12          1.7330     0.3620     0.0110 os         1 N8E      -0.435000
     13 C13          2.3630    -0.3540    -1.0700 c3         1 N8E       0.161600
     14 C14          1.3420    -1.3390    -1.6870 c3         1 N8E       0.161600
     15 O15          0.3560    -0.5920    -2.4270 os         1 N8E      -0.435000
     16 C16         -0.6650    -1.4000    -3.0450 c3         1 N8E       0.162600
     17 C17         -1.6450    -0.4790    -3.8110 c3         1 N8E       0.161600
     18 O18         -0.9890     0.0320    -4.9880 os         1 N8E      -0.434000
     19 C19         -1.7990     0.9190    -5.7850 c3         1 N8E       0.161600
     20 C20         -0.9810     1.3830    -7.0150 c3         1 N8E       0.162600
     21 O21         -0.8480     0.2820    -7.9360 os         1 N8E      -0.434000
     22 C22         -0.0900     0.5860    -9.1240 c3         1 N8E       0.160600
     23 C23         -0.0300    -0.6730   -10.0310 c3         1 N8E       0.163600
     24 O24         -1.3230    -0.9950   -10.5820 oh         1 N8E      -0.709000
     25 H011        -2.4470    -1.2570    12.8840 hc         1 N8E       0.031367
     26 H012        -2.4120    -2.4800    11.5960 hc         1 N8E       0.031367
     27 H013        -0.8940    -1.9270    12.3410 hc         1 N8E       0.031367
     28 H021        -2.7910    -0.1700    10.6700 hc         1 N8E       0.036700
     29 H022        -1.2860     0.3790    11.4080 hc         1 N8E       0.036700
     30 H031         0.0040    -1.2420     9.9810 hc         1 N8E       0.037700
     31 H032        -1.5010    -1.7900     9.2430 hc         1 N8E       0.037700
     32 H041        -1.9040     0.5230     8.3470 hc         1 N8E       0.036700
     33 H042        -0.3990     1.0710     9.0850 hc         1 N8E       0.036700
     34 H051         0.8890    -0.5510     7.6620 hc         1 N8E       0.039200
     35 H052        -0.6160    -1.0990     6.9240 hc         1 N8E       0.039200
     36 H061        -1.0200     1.2140     6.0280 hc         1 N8E       0.036700
     37 H062         0.4860     1.7630     6.7660 hc         1 N8E       0.036700
     38 H071         1.7760     0.1440     5.3400 hc         1 N8E       0.052700
     39 H072         0.2680    -0.4050     4.6010 hc         1 N8E       0.052700
     40 H081        -0.1350     1.8960     3.6950 h1         1 N8E       0.017200
     41 H082         1.3870     2.4500     4.4400 h1         1 N8E       0.017200
     42 H101         0.8240     2.3590     1.4200 h1         1 N8E       0.028700
     43 H102         2.3560     2.8800     2.1560 h1         1 N8E       0.028700
     44 H111         2.9090     2.0910    -0.0480 h1         1 N8E       0.027200
     45 H112         3.4790     0.8410     1.0800 h1         1 N8E       0.027200
     46 H131         2.7220     0.3360    -1.8440 h1         1 N8E       0.027700
     47 H132         3.2230    -0.9250    -0.6960 h1         1 N8E       0.027700
     48 H141         1.8740    -2.0290    -2.3550 h1         1 N8E       0.028200
     49 H142         0.8720    -1.9290    -0.8890 h1         1 N8E       0.028200
     50 H161        -0.2260    -2.1270    -3.7410 h1         1 N8E       0.027700
     51 H162        -1.2250    -1.9540    -2.2800 h1         1 N8E       0.027700
     52 H171        -2.5310    -1.0620    -4.0930 h1         1 N8E       0.027700
     53 H172        -1.9690     0.3390    -3.1530 h1         1 N8E       0.027700
     54 H191        -2.7170     0.4200    -6.1210 h1         1 N8E       0.028200
     55 H192        -2.0850     1.8020    -5.1980 h1         1 N8E       0.028200
     56 H201        -1.5080     2.2180    -7.4950 h1         1 N8E       0.027200
     57 H202         0.0030     1.7440    -6.6860 h1         1 N8E       0.027200
     58 H221        -0.5460     1.4170    -9.6790 h1         1 N8E       0.025700
     59 H222         0.9340     0.8790    -8.8560 h1         1 N8E       0.025700
     60 H231         0.6840    -0.4800   -10.8430 h1         1 N8E       0.024700
     61 H232         0.3590    -1.5160    -9.4450 h1         1 N8E       0.024700
     62 H24         -1.2160    -1.8320   -11.0910 ho         1 N8E       0.499000
@<TRIPOS>BOND
     1     1     2 1   
     2     1    25 1   
     3     1    26 1   
     4     1    27 1   
     5     2     3 1   
     6     2    28 1   
     7     2    29 1   
     8     3     4 1   
     9     3    30 1   
    10     3    31 1   
    11     4     5 1   
    12     4    32 1   
    13     4    33 1   
    14     5     6 1   
    15     5    34 1   
    16     5    35 1   
    17     6     7 1   
    18     6    36 1   
    19     6    37 1   
    20     7     8 1   
    21     7    38 1   
    22     7    39 1   
    23     8     9 1   
    24     8    40 1   
    25     8    41 1   
    26     9    10 1   
    27    10    11 1   
    28    10    42 1   
    29    10    43 1   
    30    11    12 1   
    31    11    44 1   
    32    11    45 1   
    33    12    13 1   
    34    13    14 1   
    35    13    46 1   
    36    13    47 1   
    37    14    15 1   
    38    14    48 1   
    39    14    49 1   
    40    15    16 1   
    41    16    17 1   
    42    16    50 1   
    43    16    51 1   
    44    17    18 1   
    45    17    52 1   
    46    17    53 1   
    47    18    19 1   
    48    19    20 1   
    49    19    54 1   
    50    19    55 1   
    51    20    21 1   
    52    20    56 1   
    53    20    57 1   
    54    21    22 1   
    55    22    23 1   
    56    22    58 1   
    57    22    59 1   
    58    23    24 1   
    59    23    60 1   
    60    23    61 1   
    61    24    62 1   
@<TRIPOS>SUBSTRUCTURE
     1 N8E         1 TEMP              0 ****  ****    0 ROOT
