@<TRIPOS>MOLECULE
N8F
   31    32     1     0     0
SMALL
No Charge or Current Charge


@<TRIPOS>ATOM
      1 N1          23.5250    16.2090    -8.3420 ns         1 N8F      -0.484500
      2 C4          22.4560    16.2870    -7.5020 c          1 N8F       0.579000
      3 C5          22.6360    17.1540    -6.2550 c6         1 N8F      -0.163400
      4 C6          25.7200    19.0970    -7.7740 c3         1 N8F      -0.289400
      5 C7          27.3340    21.4170    -7.7140 ca         1 N8F      -0.263500
      6 C8          26.7510    22.5090    -8.3910 ca         1 N8F      -0.016000
      7 C10         28.9030    23.0330    -9.4090 ca         1 N8F      -0.053000
      8 C1          23.5920    18.3430    -6.4940 c6         1 N8F      -0.083400
      9 C2          24.9360    17.8870    -7.1380 c6         1 N8F      -0.118700
     10 C3          24.7700    16.7450    -8.1810 c          1 N8F       0.584000
     11 O1          25.7030    16.3420    -8.8570 o          1 N8F      -0.515000
     12 O2          21.4020    15.7340    -7.7670 o          1 N8F      -0.510000
     13 S1          26.3270    20.3730    -6.6410 sy         1 N8F       1.041500
     14 C9          27.5370    23.3130    -9.2350 ca         1 N8F      -0.126000
     15 C11         29.4850    21.9430    -8.7380 ca         1 N8F      -0.126000
     16 C12         28.7050    21.1340    -7.8930 ca         1 N8F      -0.016000
     17 O3          25.1590    21.1460    -6.1970 o          1 N8F      -0.522500
     18 O4          27.2060    19.7000    -5.6760 o          1 N8F      -0.522500
     19 H4          23.4230    15.5710    -9.1170 hn         1 N8F       0.330500
     20 H6          21.6590    17.4510    -5.8530 hc         1 N8F       0.085200
     21 H5          23.1190    16.5080    -5.5090 hc         1 N8F       0.085200
     22 H7          26.6180    18.7210    -8.2770 h1         1 N8F       0.112200
     23 H8          25.0990    19.6050    -8.5190 h1         1 N8F       0.112200
     24 H9          25.6930    22.7380    -8.2690 ha         1 N8F       0.137000
     25 H11         29.5080    23.6570   -10.0620 ha         1 N8F       0.120000
     26 H2          23.7750    18.8690    -5.5470 hc         1 N8F       0.072200
     27 H1          23.0920    19.0640    -7.1570 hc         1 N8F       0.072200
     28 H3          25.5850    17.4620    -6.3590 hc         1 N8F       0.095700
     29 H10         27.0860    24.1550    -9.7550 ha         1 N8F       0.122500
     30 H12         30.5420    21.7250    -8.8740 ha         1 N8F       0.122500
     31 H13         29.1710    20.2920    -7.3830 ha         1 N8F       0.137000
@<TRIPOS>BOND
     1     1     2 1   
     2     1    10 1   
     3     1    19 1   
     4     2     3 1   
     5     2    12 2   
     6     3     8 1   
     7     3    20 1   
     8     3    21 1   
     9     4     9 1   
    10     4    13 1   
    11     4    22 1   
    12     4    23 1   
    13     5     6 ar  
    14     5    13 1   
    15     5    16 ar  
    16     6    14 ar  
    17     6    24 1   
    18     7    14 ar  
    19     7    15 ar  
    20     7    25 1   
    21     8     9 1   
    22     8    26 1   
    23     8    27 1   
    24     9    10 1   
    25     9    28 1   
    26    10    11 2   
    27    13    17 2   
    28    13    18 2   
    29    14    29 1   
    30    15    16 ar  
    31    15    30 1   
    32    16    31 1   
@<TRIPOS>SUBSTRUCTURE
     1 N8F         1 TEMP              0 ****  ****    0 ROOT
