@<TRIPOS>MOLECULE
N8F
   31    32     1     0     0
SMALL
bcc


@<TRIPOS>ATOM
      1 N1          23.5630    16.0830    -8.1640 ns         1 N8F      -0.618500
      2 C4          22.6390    16.1160    -7.1360 c          1 N8F       0.721500
      3 C5          22.7880    17.2470    -6.1620 c6         1 N8F      -0.163400
      4 C6          25.6160    19.1710    -8.0000 c3         1 N8F      -0.178600
      5 C7          27.3580    21.3350    -7.7150 ca         1 N8F      -0.263500
      6 C8          26.7780    22.4170    -8.3650 ca         1 N8F      -0.034000
      7 C10         28.9480    23.0100    -9.2160 ca         1 N8F      -0.071000
      8 C1          23.4900    18.4500    -6.7640 c6         1 N8F      -0.083400
      9 C2          24.8270    18.0300    -7.3690 c6         1 N8F      -0.118700
     10 C3          24.6170    16.9360    -8.4000 c          1 N8F       0.726500
     11 O1          25.3200    16.7790    -9.3700 o          1 N8F      -0.590500
     12 O2          21.7880    15.2610    -7.0600 o          1 N8F      -0.585500
     13 S1          26.3260    20.2560    -6.7550 sy         1 N8F       1.072300
     14 C9          27.5830    23.2520    -9.1250 ca         1 N8F      -0.144000
     15 C11         29.5150    21.9300    -8.5530 ca         1 N8F      -0.144000
     16 C12         28.7200    21.0800    -7.7980 ca         1 N8F      -0.034000
     17 O3          25.2690    21.0600    -6.1450 o          1 N8F      -0.593300
     18 O4          27.1770    19.4420    -5.8890 o          1 N8F      -0.593300
     19 H4          23.4560    15.3270    -8.8320 hn         1 N8F       0.330500
     20 H6          21.7990    17.5070    -5.7860 hc         1 N8F       0.085200
     21 H5          23.3610    16.8710    -5.3080 hc         1 N8F       0.085200
     22 H7          26.4620    18.7970    -8.5770 h1         1 N8F       0.112200
     23 H8          24.9950    19.7860    -8.6550 h1         1 N8F       0.112200
     24 H9          25.7160    22.6120    -8.2870 ha         1 N8F       0.155000
     25 H11         29.5720    23.6680    -9.8060 ha         1 N8F       0.138000
     26 H2          23.6440    19.1980    -5.9900 hc         1 N8F       0.072200
     27 H1          22.8670    18.9130    -7.5340 hc         1 N8F       0.072200
     28 H3          25.4390    17.5710    -6.5800 hc         1 N8F       0.095700
     29 H10         27.1440    24.0960    -9.6400 ha         1 N8F       0.140500
     30 H12         30.5790    21.7470    -8.6220 ha         1 N8F       0.140500
     31 H13         29.1600    20.2370    -7.2830 ha         1 N8F       0.155000
@<TRIPOS>BOND
     1     1     2 1   
     2     1    10 1   
     3     1    19 1   
     4     2     3 1   
     5     2    12 2   
     6     3     8 1   
     7     3    20 1   
     8     3    21 1   
     9     4     9 1   
    10     4    13 1   
    11     4    22 1   
    12     4    23 1   
    13     5     6 ar  
    14     5    13 1   
    15     5    16 ar  
    16     6    14 ar  
    17     6    24 1   
    18     7    14 ar  
    19     7    15 ar  
    20     7    25 1   
    21     8     9 1   
    22     8    26 1   
    23     8    27 1   
    24     9    10 1   
    25     9    28 1   
    26    10    11 2   
    27    13    17 2   
    28    13    18 2   
    29    14    29 1   
    30    15    16 ar  
    31    15    30 1   
    32    16    31 1   
@<TRIPOS>SUBSTRUCTURE
     1 N8F         1 TEMP              0 ****  ****    0 ROOT
