@<TRIPOS>MOLECULE
N8J
   62    66     1     0     0
SMALL
abcg2


@<TRIPOS>ATOM
      1 N1           1.6460    -1.2950     0.2500 nh         1 N8J      -0.804400
      2 C4           0.7330    -0.3200    -0.0990 ca         1 N8J       0.236000
      3 C5          -0.6470    -0.4960    -0.0400 ca         1 N8J      -0.094000
      4 C6          -1.5340     0.5120    -0.4200 ca         1 N8J      -0.161600
      5 C7          -2.9790     0.2070    -0.3540 c          1 N8J       0.653700
      6 C8          -1.0420     1.7340    -0.8660 ca         1 N8J      -0.081000
      7 C10          1.2060     0.9330    -0.5490 ca         1 N8J       0.112100
      8 C15          1.7470    -5.0710     1.0810 cy         1 N8J      -0.084900
      9 C17          2.8070    -4.0900    -0.5110 cy         1 N8J      -0.084900
     10 C21          6.1060     2.4440     0.9520 ca         1 N8J      -0.105000
     11 C22          4.8800     1.9140     0.5890 ca         1 N8J      -0.068000
     12 C24          5.9610     0.0750    -0.4610 ca         1 N8J       0.134000
     13 CL25         5.9270    -1.4250    -1.3310 cl         1 N8J      -0.193000
     14 C2           1.1750    -2.5390     0.8300 c3         1 N8J       0.231800
     15 O3           2.5210     1.2180    -0.6370 os         1 N8J      -0.341100
     16 C9           0.3260     1.9330    -0.9280 ca         1 N8J      -0.124000
     17 C11          3.4330     0.1460    -0.4720 c6         1 N8J       0.213600
     18 C12          2.9460    -0.7920     0.6220 c6         1 N8J       0.176800
     19 O13         -3.4240    -0.9220    -0.3210 o          1 N8J      -0.563100
     20 C14          2.2280    -3.6250     0.8400 cy         1 N8J      -0.099700
     21 C16          2.7600    -5.5360     0.0170 cy         1 N8J      -0.092400
     22 C18          7.2040     0.5800    -0.1130 ca         1 N8J      -0.100000
     23 C19          7.2610     1.7700     0.5920 ca         1 N8J       0.131000
     24 C23          4.7770     0.7260    -0.1280 ca         1 N8J      -0.084300
     25 O27         -5.9210     2.5900    -0.5200 o          1 N8J      -0.518500
     26 O28         -5.7960     0.3360    -1.6050 o          1 N8J      -0.518500
     27 N29         -3.8180     1.3010    -0.3190 ns         1 N8J      -0.592300
     28 C30         -6.0530     0.4490     1.0350 c3         1 N8J      -0.254100
     29 C31         -7.5470     0.3560     0.9990 ca         1 N8J      -0.092300
     30 C32         -8.1650    -0.7790     0.4830 ca         1 N8J      -0.083500
     31 C33         -9.5490    -0.8630     0.4410 ca         1 N8J      -0.110000
     32 C34        -10.3250     0.1900     0.9060 ca         1 N8J      -0.097000
     33 C35         -9.7130     1.3280     1.4160 ca         1 N8J      -0.110000
     34 C36         -8.3290     1.4120     1.4590 ca         1 N8J      -0.083500
     35 H6          -1.0550    -1.4280     0.3230 ha         1 N8J       0.135000
     36 H7          -1.6950     2.5290    -1.2020 ha         1 N8J       0.120000
     37 H10          1.8410    -5.4720     2.0910 hc         1 N8J       0.053700
     38 H11          0.7180    -5.2130     0.7450 hc         1 N8J       0.053700
     39 H15          2.0860    -3.9340    -1.3170 hc         1 N8J       0.053700
     40 H14          3.7700    -3.6860    -0.8220 hc         1 N8J       0.053700
     41 H17          6.1570     3.3700     1.5080 ha         1 N8J       0.137000
     42 H18          3.9830     2.4470     0.8760 ha         1 N8J       0.137000
     43 H2           0.7780    -2.3890     1.8450 h1         1 N8J       0.045700
     44 H4           0.3470    -2.9000     0.2160 h1         1 N8J       0.045700
     45 H8           0.7250     2.8730    -1.2840 ha         1 N8J       0.133000
     46 H5           3.4890    -0.4150    -1.4100 h1         1 N8J       0.084700
     47 H3           2.9380    -0.2680     1.5870 h1         1 N8J       0.060200
     48 H1           3.6540    -1.6130     0.7020 h1         1 N8J       0.060200
     49 H9           3.0320    -3.3990     1.5460 hc         1 N8J       0.055700
     50 H12          3.7080    -5.8320     0.4660 hc         1 N8J       0.051700
     51 H13          2.4440    -6.3190    -0.6730 hc         1 N8J       0.051700
     52 H16          8.1070     0.0530    -0.3870 ha         1 N8J       0.147000
     53 H19         -3.4580     2.2310    -0.1440 hn         1 N8J       0.348500
     54 H21         -5.5780    -0.5280     1.1090 h1         1 N8J       0.107200
     55 H20         -5.6900     1.0830     1.8450 h1         1 N8J       0.107200
     56 H22         -7.5640    -1.6050     0.1230 ha         1 N8J       0.122500
     57 H23        -10.0210    -1.7520     0.0430 ha         1 N8J       0.116500
     58 H24        -11.4050     0.1230     0.8750 ha         1 N8J       0.114000
     59 H25        -10.3120     2.1510     1.7820 ha         1 N8J       0.116500
     60 H26         -7.8550     2.2980     1.8630 ha         1 N8J       0.122500
     61 CL20         8.8040     2.4140     1.0310 cl         1 N8J      -0.185000
     62 S26         -5.4830     1.2060    -0.4910 s6         1 N8J       1.200800
@<TRIPOS>BOND
     1     1     2 1   
     2     1    14 1   
     3     1    18 1   
     4     2     3 ar  
     5     2     7 ar  
     6     3     4 ar  
     7     3    35 1   
     8     4     5 1   
     9     4     6 ar  
    10     5    19 2   
    11     5    27 1   
    12     6    16 ar  
    13     6    36 1   
    14     7    15 1   
    15     7    16 ar  
    16     8    20 1   
    17     8    21 1   
    18     8    37 1   
    19     8    38 1   
    20     9    20 1   
    21     9    21 1   
    22     9    39 1   
    23     9    40 1   
    24    10    11 ar  
    25    10    23 ar  
    26    10    41 1   
    27    11    24 ar  
    28    11    42 1   
    29    12    13 1   
    30    12    22 ar  
    31    12    24 ar  
    32    14    20 1   
    33    14    43 1   
    34    14    44 1   
    35    15    17 1   
    36    16    45 1   
    37    17    18 1   
    38    17    24 1   
    39    17    46 1   
    40    18    47 1   
    41    18    48 1   
    42    20    49 1   
    43    21    50 1   
    44    21    51 1   
    45    22    23 ar  
    46    22    52 1   
    47    23    61 1   
    48    25    62 2   
    49    26    62 2   
    50    27    53 1   
    51    27    62 1   
    52    28    29 1   
    53    28    54 1   
    54    28    55 1   
    55    28    62 1   
    56    29    30 ar  
    57    29    34 ar  
    58    30    31 ar  
    59    30    56 1   
    60    31    32 ar  
    61    31    57 1   
    62    32    33 ar  
    63    32    58 1   
    64    33    34 ar  
    65    33    59 1   
    66    34    60 1   
@<TRIPOS>SUBSTRUCTURE
     1 N8J         1 TEMP              0 ****  ****    0 ROOT
