@<TRIPOS>MOLECULE
N8J
   62    66     1     0     0
SMALL
No Charge or Current Charge


@<TRIPOS>ATOM
      1 N1           1.6600    -1.3800     0.4230 nh         1 N8J      -0.804400
      2 C4           0.7000    -0.3860     0.0420 ca         1 N8J       0.236000
      3 C5          -0.6890    -0.6550     0.0300 ca         1 N8J      -0.094000
      4 C6          -1.6410     0.3350    -0.3190 ca         1 N8J      -0.161600
      5 C7          -3.1170    -0.0210    -0.3140 c          1 N8J       0.653700
      6 C8          -1.1780     1.6300    -0.6530 ca         1 N8J      -0.081000
      7 C10          1.1290     0.9280    -0.3040 ca         1 N8J       0.112100
      8 C15          1.9850    -5.3430     0.7060 cy         1 N8J      -0.084900
      9 C17          3.0460    -4.1400    -0.6860 cy         1 N8J      -0.084900
     10 C21          6.2220     2.4450     1.2230 ca         1 N8J      -0.105000
     11 C22          4.9580     1.9100     0.9170 ca         1 N8J      -0.068000
     12 C24          6.0140     0.2550    -0.5260 ca         1 N8J       0.134000
     13 Cl25         5.9480    -1.1380    -1.6060 cl         1 N8J      -0.193000
     14 C2           1.2660    -2.7760     0.7850 c3         1 N8J       0.231800
     15 O3           2.4660     1.2810    -0.2970 os         1 N8J      -0.341100
     16 C9           0.1950     1.9180    -0.6370 ca         1 N8J      -0.124000
     17 C11          3.4550     0.2270    -0.2890 c6         1 N8J       0.213600
     18 C12          3.0560    -0.9040     0.6950 c6         1 N8J       0.176800
     19 O13         -3.5090    -1.1330     0.0030 o          1 N8J      -0.563100
     20 C14          2.3930    -3.8280     0.7070 cy         1 N8J      -0.099700
     21 C16          3.2910    -5.5780    -0.1220 cy         1 N8J      -0.092400
     22 C18          7.2740     0.7940    -0.2160 ca         1 N8J      -0.100000
     23 C19          7.3770     1.8890     0.6550 ca         1 N8J       0.131000
     24 C23          4.8400     0.8150     0.0310 ca         1 N8J      -0.084300
     25 O27         -6.0690     2.1450    -1.4290 o          1 N8J      -0.518500
     26 O28         -5.9360    -0.3900    -1.5620 o          1 N8J      -0.518500
     27 N29         -3.9800     0.9700    -0.6600 ns         1 N8J      -0.592300
     28 C30         -6.2540     0.7460     0.8300 c3         1 N8J      -0.254100
     29 C31         -7.7730     0.6680     0.9480 ca         1 N8J      -0.092300
     30 C32         -8.4210    -0.5820     0.9430 ca         1 N8J      -0.083500
     31 C33         -9.8210    -0.6530     1.0530 ca         1 N8J      -0.110000
     32 C34        -10.5800     0.5240     1.1690 ca         1 N8J      -0.097000
     33 C35         -9.9360     1.7730     1.1760 ca         1 N8J      -0.110000
     34 C36         -8.5370     1.8460     1.0670 ca         1 N8J      -0.083500
     35 H6          -1.0480    -1.6410     0.3060 ha         1 N8J       0.135000
     36 H7          -1.8640     2.4290    -0.9220 ha         1 N8J       0.120000
     37 H10          1.9440    -5.8290     1.6870 hc         1 N8J       0.053700
     38 H11          1.0570    -5.5700     0.1660 hc         1 N8J       0.053700
     39 H15          2.3550    -4.0940    -1.5370 hc         1 N8J       0.053700
     40 H14          3.9440    -3.5670    -0.9380 hc         1 N8J       0.053700
     41 H17          6.3050     3.2900     1.9030 ha         1 N8J       0.137000
     42 H18          4.0730     2.3490     1.3720 ha         1 N8J       0.137000
     43 H2           0.8510    -2.7960     1.8020 h1         1 N8J       0.045700
     44 H4           0.4870    -3.1260     0.0950 h1         1 N8J       0.045700
     45 H8           0.5400     2.9170    -0.8900 ha         1 N8J       0.133000
     46 H5           3.4650    -0.2020    -1.3000 h1         1 N8J       0.084700
     47 H3           3.1320    -0.5300     1.7270 h1         1 N8J       0.060200
     48 H1           3.7990    -1.7040     0.5860 h1         1 N8J       0.060200
     49 H9           3.1210    -3.6030     1.4960 hc         1 N8J       0.055700
     50 H12          4.2010    -5.6830     0.4810 hc         1 N8J       0.051700
     51 H13          3.2570    -6.3930    -0.8520 hc         1 N8J       0.051700
     52 H16          8.1710     0.3600    -0.6480 ha         1 N8J       0.147000
     53 H19         -3.6300     1.8750    -0.9170 hn         1 N8J       0.348500
     54 H21         -5.7880    -0.1480     1.2580 h1         1 N8J       0.107200
     55 H20         -5.8690     1.6280     1.3520 h1         1 N8J       0.107200
     56 H22         -7.8420    -1.4980     0.8520 ha         1 N8J       0.122500
     57 H23        -10.3180    -1.6210     1.0470 ha         1 N8J       0.116500
     58 H24        -11.6630     0.4680     1.2540 ha         1 N8J       0.114000
     59 H25        -10.5220     2.6860     1.2670 ha         1 N8J       0.116500
     60 H26         -8.0470     2.8170     1.0730 ha         1 N8J       0.122500
     61 Cl20         8.9560     2.5590     1.0410 cl         1 N8J      -0.185000
     62 S26         -5.6340     0.8640    -0.8620 s6         1 N8J       1.200800
@<TRIPOS>BOND
     1     1     2 1   
     2     1    14 1   
     3     1    18 1   
     4     2     3 ar  
     5     2     7 ar  
     6     3     4 ar  
     7     3    35 1   
     8     4     5 1   
     9     4     6 ar  
    10     5    19 2   
    11     5    27 1   
    12     6    16 ar  
    13     6    36 1   
    14     7    15 1   
    15     7    16 ar  
    16     8    20 1   
    17     8    21 1   
    18     8    37 1   
    19     8    38 1   
    20     9    20 1   
    21     9    21 1   
    22     9    39 1   
    23     9    40 1   
    24    10    11 ar  
    25    10    23 ar  
    26    10    41 1   
    27    11    24 ar  
    28    11    42 1   
    29    12    13 1   
    30    12    22 ar  
    31    12    24 ar  
    32    14    20 1   
    33    14    43 1   
    34    14    44 1   
    35    15    17 1   
    36    16    45 1   
    37    17    18 1   
    38    17    24 1   
    39    17    46 1   
    40    18    47 1   
    41    18    48 1   
    42    20    49 1   
    43    21    50 1   
    44    21    51 1   
    45    22    23 ar  
    46    22    52 1   
    47    23    61 1   
    48    25    62 2   
    49    26    62 2   
    50    27    53 1   
    51    27    62 1   
    52    28    29 1   
    53    28    54 1   
    54    28    55 1   
    55    28    62 1   
    56    29    30 ar  
    57    29    34 ar  
    58    30    31 ar  
    59    30    56 1   
    60    31    32 ar  
    61    31    57 1   
    62    32    33 ar  
    63    32    58 1   
    64    33    34 ar  
    65    33    59 1   
    66    34    60 1   
@<TRIPOS>SUBSTRUCTURE
     1 N8J         1 TEMP              0 ****  ****    0 ROOT
