@<TRIPOS>MOLECULE
N8K
   57    61     1     0     0
SMALL
No Charge or Current Charge


@<TRIPOS>ATOM
      1 FBD         55.6180    -5.8520    -1.0030 f          1 N8K      -0.162000
      2 CBC         55.0750    -6.3610     0.1270 ca         1 N8K       0.193000
      3 CBE         53.9080    -7.1370     0.0390 ca         1 N8K      -0.148000
      4 CBF         53.3260    -7.6660     1.2040 ca         1 N8K      -0.075000
      5 CBG         53.9150    -7.4170     2.4560 ca         1 N8K      -0.126000
      6 CBH         55.0840    -6.6400     2.5460 ca         1 N8K      -0.066000
      7 CBB         55.6720    -6.1100     1.3820 ca         1 N8K      -0.029200
      8 NBA         56.8180    -5.3190     1.4860 na         1 N8K      -0.258800
      9 CAJ         58.1270    -5.7530     1.4110 cc         1 N8K       0.367500
     10 CAG         58.6350    -7.1540     1.3670 ca         1 N8K       0.263000
     11 CAF         60.0320    -7.3800     1.2850 ca         1 N8K      -0.068000
     12 CAE         60.5440    -8.6910     1.2410 ca         1 N8K      -0.178000
     13 NAH         57.7630    -8.2040     1.4050 nb         1 N8K      -0.641000
     14 CAI         58.2550    -9.4670     1.3630 ca         1 N8K       0.307900
     15 CAD         59.6330    -9.7660     1.2810 ca         1 N8K       0.110100
     16 OAC         60.0360   -11.0890     1.2430 os         1 N8K      -0.339100
     17 CAB         61.4220   -11.4630     1.1600 c3         1 N8K       0.163600
     18 CAA         61.4860   -12.9990     1.1390 c3         1 N8K      -0.095100
     19 NAK         58.8850    -4.6590     1.3860 nd         1 N8K      -0.360000
     20 NAL         58.0640    -3.5470     1.4000 nd         1 N8K      -0.350000
     21 CAM         56.8030    -3.9520     1.4380 cc         1 N8K       0.409800
     22 CAN         55.6150    -3.0330     1.4120 cy         1 N8K      -0.119000
     23 CAQ         54.4130    -3.2190     2.4050 cy         1 N8K      -0.091900
     24 CAO         55.6830    -1.5770     1.9950 cy         1 N8K      -0.091900
     25 CAP         54.1370    -1.6920     2.2100 cy         1 N8K       0.104700
     26 NAR         53.2550    -1.2840     1.1460 ns         1 N8K      -0.506900
     27 CAS         52.9190     0.0360     0.8770 c          1 N8K       0.505600
     28 OAT         53.3720     0.9410     1.5740 o          1 N8K      -0.559100
     29 CAU         51.9720     0.2930    -0.3140 ca         1 N8K       0.294500
     30 NAZ         51.6120     1.5840    -0.5860 nb         1 N8K      -0.619000
     31 CAY         50.7820     1.8300    -1.6260 ca         1 N8K       0.336900
     32 CAX         50.2680     0.8160    -2.4480 ca         1 N8K      -0.150000
     33 CAW         50.6230    -0.5150    -2.1880 ca         1 N8K      -0.078000
     34 CAV         51.4840    -0.7770    -1.1090 ca         1 N8K      -0.147000
     35 HBE         53.4560    -7.3240    -0.9320 ha         1 N8K       0.137000
     36 HBF         52.4210    -8.2670     1.1370 ha         1 N8K       0.121000
     37 HBG         53.4640    -7.8250     3.3580 ha         1 N8K       0.123000
     38 HBH         55.5320    -6.4500     3.5190 ha         1 N8K       0.131000
     39 HAG         60.7210    -6.5390     1.2550 ha         1 N8K       0.148000
     40 HAF         61.6170    -8.8460     1.1790 ha         1 N8K       0.128000
     41 HAI         57.5200   -10.2700     1.3960 h4         1 N8K       0.034100
     42 HAE         61.9810   -11.0860     2.0270 h1         1 N8K       0.037700
     43 HAD         61.8790   -11.0660     0.2440 h1         1 N8K       0.037700
     44 HAA         62.5280   -13.3340     1.0760 hc         1 N8K       0.050367
     45 HAB         61.0450   -13.4160     2.0520 hc         1 N8K       0.050367
     46 HAC         60.9440   -13.3960     0.2730 hc         1 N8K       0.050367
     47 HAN         55.3040    -3.0540     0.3600 hc         1 N8K       0.071700
     48 HAR         53.6180    -3.8980     2.0760 hc         1 N8K       0.071950
     49 HAS         54.7040    -3.5010     3.4240 hc         1 N8K       0.071950
     50 HAO         56.2630    -1.4830     2.9220 hc         1 N8K       0.071950
     51 HAP         56.0140    -0.7980     1.3010 hc         1 N8K       0.071950
     52 HAQ         53.7930    -1.2040     3.1310 h1         1 N8K       0.084700
     53 HBI         52.8480    -1.9900     0.5460 hn         1 N8K       0.315500
     54 HAY         50.5230     2.8730    -1.8050 h4         1 N8K       0.026100
     55 HAX         49.6050     1.0660    -3.2710 ha         1 N8K       0.127000
     56 HAW         50.2410    -1.3240    -2.8070 ha         1 N8K       0.121000
     57 HAV         51.7640    -1.8060    -0.9050 ha         1 N8K       0.123000
@<TRIPOS>BOND
     1     1     2 1   
     2     2     3 ar  
     3     2     7 ar  
     4     3     4 ar  
     5     3    35 1   
     6     4     5 ar  
     7     4    36 1   
     8     5     6 ar  
     9     5    37 1   
    10     6     7 ar  
    11     6    38 1   
    12     7     8 1   
    13     8     9 1   
    14     8    21 1   
    15     9    10 1   
    16     9    19 2   
    17    10    11 ar  
    18    10    13 ar  
    19    11    12 ar  
    20    11    39 1   
    21    12    15 ar  
    22    12    40 1   
    23    13    14 ar  
    24    14    15 ar  
    25    14    41 1   
    26    15    16 1   
    27    16    17 1   
    28    17    18 1   
    29    17    42 1   
    30    17    43 1   
    31    18    44 1   
    32    18    45 1   
    33    18    46 1   
    34    19    20 1   
    35    20    21 2   
    36    21    22 1   
    37    22    23 1   
    38    22    24 1   
    39    22    47 1   
    40    23    25 1   
    41    23    48 1   
    42    23    49 1   
    43    24    25 1   
    44    24    50 1   
    45    24    51 1   
    46    25    26 1   
    47    25    52 1   
    48    26    27 1   
    49    26    53 1   
    50    27    28 2   
    51    27    29 1   
    52    29    30 ar  
    53    29    34 ar  
    54    30    31 ar  
    55    31    32 ar  
    56    31    54 1   
    57    32    33 ar  
    58    32    55 1   
    59    33    34 ar  
    60    33    56 1   
    61    34    57 1   
@<TRIPOS>SUBSTRUCTURE
     1 N8K         1 TEMP              0 ****  ****    0 ROOT
