@<TRIPOS>MOLECULE
N8K
   57    61     1     0     0
SMALL
bcc


@<TRIPOS>ATOM
      1 FBD         56.9110    -6.2580    -1.2230 f          1 N8K      -0.126900
      2 CBC         55.8360    -6.5540    -0.4840 ca         1 N8K       0.157900
      3 CBE         54.8000    -7.2780    -1.0350 ca         1 N8K      -0.166000
      4 CBF         53.7020    -7.5770    -0.2390 ca         1 N8K      -0.093000
      5 CBG         53.6530    -7.1570     1.0830 ca         1 N8K      -0.144000
      6 CBH         54.7090    -6.4360     1.6200 ca         1 N8K      -0.084000
      7 CBB         55.8060    -6.1280     0.8330 ca         1 N8K      -0.029200
      8 NBA         56.8810    -5.3620     1.3420 na         1 N8K      -0.258800
      9 CAJ         58.1570    -5.7460     1.6380 cc         1 N8K       0.367500
     10 CAG         58.6730    -7.1110     1.5790 ca         1 N8K       0.328300
     11 CAF         60.0420    -7.3470     1.6080 ca         1 N8K      -0.151300
     12 CAE         60.5050    -8.6520     1.5630 ca         1 N8K      -0.196000
     13 NAH         57.7890    -8.1020     1.5120 nb         1 N8K      -0.641000
     14 CAI         58.2190    -9.3440     1.4650 ca         1 N8K       0.373200
     15 CAD         59.5770    -9.6870     1.4880 ca         1 N8K       0.044800
     16 OAC         59.8680   -10.9890     1.4350 os         1 N8K      -0.315900
     17 CAB         61.2350   -11.3910     1.4470 c3         1 N8K       0.140400
     18 CAA         61.2800   -12.8980     1.3850 c3         1 N8K      -0.095100
     19 NAK         58.8480    -4.6990     1.9920 nd         1 N8K      -0.360000
     20 NAL         58.0400    -3.6150     1.9240 nd         1 N8K      -0.350000
     21 CAM         56.8640    -4.0100     1.5310 cc         1 N8K       0.409800
     22 CAN         55.6720    -3.1640     1.3130 cy         1 N8K      -0.119000
     23 CAQ         54.5960    -3.0930     2.4250 cy         1 N8K      -0.091900
     24 CAO         55.8430    -1.6410     1.4490 cy         1 N8K      -0.091900
     25 CAP         54.4810    -1.5810     2.1730 cy         1 N8K       0.104700
     26 NAR         53.3640    -1.2780     1.3080 ns         1 N8K      -0.573900
     27 CAS         53.1400    -0.0390     0.8460 c          1 N8K       0.572600
     28 OAT         53.8650     0.9100     1.0980 o          1 N8K      -0.559100
     29 CAU         51.9160     0.1210    -0.0120 ca         1 N8K       0.359800
     30 NAZ         52.0260     1.0140    -0.9900 nb         1 N8K      -0.619000
     31 CAY         50.9770     1.2170    -1.7720 ca         1 N8K       0.402200
     32 CAX         49.7640     0.5580    -1.6110 ca         1 N8K      -0.233300
     33 CAW         49.6480    -0.3590    -0.5810 ca         1 N8K      -0.096000
     34 CAV         50.7470    -0.5890     0.2350 ca         1 N8K      -0.230300
     35 HBE         54.8510    -7.6000    -2.0660 ha         1 N8K       0.155000
     36 HBF         52.8820    -8.1420    -0.6600 ha         1 N8K       0.139000
     37 HBG         52.7990    -7.3970     1.7010 ha         1 N8K       0.141000
     38 HBH         54.6920    -6.1190     2.6540 ha         1 N8K       0.149000
     39 HAG         60.7420    -6.5250     1.6590 ha         1 N8K       0.166000
     40 HAF         61.5710    -8.8340     1.5830 ha         1 N8K       0.146000
     41 HAI         57.4710   -10.1280     1.4090 h4         1 N8K       0.034100
     42 HAE         61.7230   -11.0280     2.3580 h1         1 N8K       0.037700
     43 HAD         61.7590   -10.9550     0.5900 h1         1 N8K       0.037700
     44 HAA         62.3190   -13.2260     1.3900 hc         1 N8K       0.050367
     45 HAB         60.7820   -13.3480     2.2440 hc         1 N8K       0.050367
     46 HAC         60.8140   -13.2730     0.4740 hc         1 N8K       0.050367
     47 HAN         55.2090    -3.4240     0.3570 hc         1 N8K       0.071700
     48 HAR         53.6970    -3.6970     2.2920 hc         1 N8K       0.071950
     49 HAS         55.0110    -3.2990     3.4110 hc         1 N8K       0.071950
     50 HAO         56.6560    -1.3850     2.1280 hc         1 N8K       0.071950
     51 HAP         55.9530    -1.0670     0.5310 hc         1 N8K       0.071950
     52 HAQ         54.4420    -0.9450     3.0580 h1         1 N8K       0.084700
     53 HBI         52.7790    -2.0370     0.9970 hn         1 N8K       0.315500
     54 HAY         51.1000     1.9420    -2.5680 h4         1 N8K       0.026100
     55 HAX         48.9370     0.7690    -2.2750 ha         1 N8K       0.145000
     56 HAW         48.7200    -0.8870    -0.4090 ha         1 N8K       0.139000
     57 HAV         50.6780    -1.2880     1.0570 ha         1 N8K       0.141000
@<TRIPOS>BOND
     1     1     2 1   
     2     2     3 ar  
     3     2     7 ar  
     4     3     4 ar  
     5     3    35 1   
     6     4     5 ar  
     7     4    36 1   
     8     5     6 ar  
     9     5    37 1   
    10     6     7 ar  
    11     6    38 1   
    12     7     8 1   
    13     8     9 1   
    14     8    21 1   
    15     9    10 1   
    16     9    19 2   
    17    10    11 ar  
    18    10    13 ar  
    19    11    12 ar  
    20    11    39 1   
    21    12    15 ar  
    22    12    40 1   
    23    13    14 ar  
    24    14    15 ar  
    25    14    41 1   
    26    15    16 1   
    27    16    17 1   
    28    17    18 1   
    29    17    42 1   
    30    17    43 1   
    31    18    44 1   
    32    18    45 1   
    33    18    46 1   
    34    19    20 1   
    35    20    21 2   
    36    21    22 1   
    37    22    23 1   
    38    22    24 1   
    39    22    47 1   
    40    23    25 1   
    41    23    48 1   
    42    23    49 1   
    43    24    25 1   
    44    24    50 1   
    45    24    51 1   
    46    25    26 1   
    47    25    52 1   
    48    26    27 1   
    49    26    53 1   
    50    27    28 2   
    51    27    29 1   
    52    29    30 ar  
    53    29    34 ar  
    54    30    31 ar  
    55    31    32 ar  
    56    31    54 1   
    57    32    33 ar  
    58    32    55 1   
    59    33    34 ar  
    60    33    56 1   
    61    34    57 1   
@<TRIPOS>SUBSTRUCTURE
     1 N8K         1 TEMP              0 ****  ****    0 ROOT
