@<TRIPOS>MOLECULE
N8L
   41    43     1     0     0
SMALL
No Charge or Current Charge


@<TRIPOS>ATOM
      1 C1           8.8370     8.3420    45.5770 c3         1 N8L      -0.031800
      2 C2           9.7320     8.7420    44.4270 cc         1 N8L      -0.115300
      3 C6          10.8620     9.6080    42.6820 cd         1 N8L       0.295500
      4 C7           9.7380     9.7900    43.5270 cd         1 N8L      -0.204300
      5 C8           8.7100    10.9280    43.5520 c5         1 N8L       0.201000
      6 C10          9.3880    12.1970    44.1450 c5         1 N8L      -0.086400
      7 C11          9.0550    12.0860    45.6520 c5         1 N8L      -0.095400
      8 C12          7.5610    11.6790    45.6050 c5         1 N8L       0.100000
      9 C16          6.3920     9.2190    42.7740 c3         1 N8L      -0.155400
     10 C19         12.6590    10.8420    41.4350 ca         1 N8L      -0.148500
     11 C22         10.8820    11.7810    39.5660 ca         1 N8L       0.330400
     12 C23         10.4050    10.9680    40.6100 ca         1 N8L      -0.148500
     13 C17          5.1630     8.3130    42.5390 c3         1 N8L      -0.076100
     14 O15          5.3680    10.1130    44.7730 o          1 N8L      -0.607100
     15 N13          7.5200    10.7930    44.4210 n          1 N8L      -0.423800
     16 N3          10.8620     8.0090    44.0650 na         1 N8L       0.002800
     17 N5          11.5690     8.5420    43.0040 nc         1 N8L      -0.504800
     18 C18         11.3010    10.4980    41.5910 ca         1 N8L      -0.074500
     19 N21         12.1820    12.1320    39.4390 nb         1 N8L      -0.661000
     20 C20         13.0510    11.6600    40.3620 ca         1 N8L       0.330400
     21 H25          7.8420     8.0500    45.2250 hc         1 N8L       0.056033
     22 H26          9.2520     7.4820    46.1160 hc         1 N8L       0.056033
     23 H24          8.7260     9.1510    46.3050 hc         1 N8L       0.056033
     24 H9           8.4000    11.1340    42.5210 h1         1 N8L       0.061700
     25 H28         10.4650    12.2450    43.9490 hc         1 N8L       0.059700
     26 H27          8.9460    13.1050    43.7170 hc         1 N8L       0.059700
     27 H30          9.6680    11.3190    46.1380 hc         1 N8L       0.054200
     28 H29          9.2160    13.0240    46.1940 hc         1 N8L       0.054200
     29 H32          6.9110    12.5520    45.4550 h1         1 N8L       0.053200
     30 H31          7.2460    11.1650    46.5230 h1         1 N8L       0.053200
     31 H33          7.3220     8.6410    42.7530 hc         1 N8L       0.058700
     32 H40          6.5450     9.9000    41.9300 hc         1 N8L       0.058700
     33 H36         13.4060    10.4900    42.1400 ha         1 N8L       0.127500
     34 H38         10.2020    12.1540    38.8010 h4         1 N8L       0.019100
     35 H39          9.3560    10.6940    40.6290 ha         1 N8L       0.127500
     36 H35          5.2760     7.7500    41.6050 hc         1 N8L       0.041033
     37 H1           5.0490     7.5940    43.3600 hc         1 N8L       0.041033
     38 H34          4.2460     8.9110    42.4690 hc         1 N8L       0.041033
     39 H4          11.1810     7.1560    44.5230 hn         1 N8L       0.374000
     40 H37         14.0950    11.9450    40.2360 h4         1 N8L       0.019100
     41 C14          6.3650    10.0690    44.0640 c          1 N8L       0.601100
@<TRIPOS>BOND
     1     1     2 1   
     2     1    21 1   
     3     1    22 1   
     4     1    23 1   
     5     2     4 2   
     6     2    16 1   
     7     3     4 1   
     8     3    17 2   
     9     3    18 1   
    10     4     5 1   
    11     5     6 1   
    12     5    15 1   
    13     5    24 1   
    14     6     7 1   
    15     6    25 1   
    16     6    26 1   
    17     7     8 1   
    18     7    27 1   
    19     7    28 1   
    20     8    15 1   
    21     8    29 1   
    22     8    30 1   
    23     9    13 1   
    24     9    31 1   
    25     9    32 1   
    26     9    41 1   
    27    10    18 ar  
    28    10    20 ar  
    29    10    33 1   
    30    11    12 ar  
    31    11    19 ar  
    32    11    34 1   
    33    12    18 ar  
    34    12    35 1   
    35    13    36 1   
    36    13    37 1   
    37    13    38 1   
    38    14    41 2   
    39    15    41 1   
    40    16    17 1   
    41    16    39 1   
    42    19    20 ar  
    43    20    40 1   
@<TRIPOS>SUBSTRUCTURE
     1 N8L         1 TEMP              0 ****  ****    0 ROOT
