@<TRIPOS>MOLECULE
N8L
   41    43     1     0     0
SMALL
abcg2


@<TRIPOS>ATOM
      1 C1           8.9210     8.2940    45.5910 c3         1 N8L      -0.031800
      2 C2           9.7680     8.7570    44.4560 cc         1 N8L      -0.115300
      3 C6          10.8190     9.6590    42.7320 cd         1 N8L       0.295500
      4 C7           9.6760     9.8050    43.5570 cd         1 N8L      -0.204300
      5 C8           8.6740    10.9270    43.5080 c5         1 N8L       0.201000
      6 C10          9.2560    12.2450    44.0360 c5         1 N8L      -0.086400
      7 C11          8.9890    12.1540    45.5320 c5         1 N8L      -0.095400
      8 C12          7.5980    11.5360    45.5970 c5         1 N8L       0.100000
      9 C16          6.4180     9.2770    42.7610 c3         1 N8L      -0.155400
     10 C19         12.6470    10.7310    41.4390 ca         1 N8L      -0.148500
     11 C22         10.9400    11.8110    39.6460 ca         1 N8L       0.330400
     12 C23         10.4190    11.0500    40.6810 ca         1 N8L      -0.148500
     13 C17          5.1670     8.4490    42.5370 c3         1 N8L      -0.076100
     14 O15          5.4740     9.9670    44.8600 o          1 N8L      -0.607100
     15 N13          7.5290    10.7230    44.3860 n          1 N8L      -0.423800
     16 N3          10.8940     8.0940    44.1240 na         1 N8L       0.002800
     17 N5          11.5450     8.6150    43.1010 nc         1 N8L      -0.504800
     18 C18         11.2850    10.4900    41.6170 ca         1 N8L      -0.074500
     19 N21         12.2360    12.0450    39.4810 nb         1 N8L      -0.661000
     20 C20         13.0640    11.5050    40.3690 ca         1 N8L       0.330400
     21 H25          7.9380     7.9660    45.2540 hc         1 N8L       0.056033
     22 H26          9.3900     7.4500    46.0970 hc         1 N8L       0.056033
     23 H24          8.7750     9.0760    46.3340 hc         1 N8L       0.056033
     24 H9           8.3240    11.0610    42.4840 h1         1 N8L       0.061700
     25 H28         10.3090    12.3680    43.7830 hc         1 N8L       0.059700
     26 H27          8.7060    13.0840    43.6030 hc         1 N8L       0.059700
     27 H30          9.7220    11.5010    46.0110 hc         1 N8L       0.054200
     28 H29          9.0310    13.1200    46.0330 hc         1 N8L       0.054200
     29 H32          6.8200    12.3040    45.5830 h1         1 N8L       0.053200
     30 H31          7.4470    10.9310    46.4920 h1         1 N8L       0.053200
     31 H33          7.3080     8.6430    42.7010 hc         1 N8L       0.058700
     32 H40          6.5320    10.0080    41.9550 hc         1 N8L       0.058700
     33 H36         13.3760    10.3310    42.1300 ha         1 N8L       0.127500
     34 H38         10.2700    12.2450    38.9120 h4         1 N8L       0.019100
     35 H39          9.3520    10.8830    40.7240 ha         1 N8L       0.127500
     36 H35          5.2250     7.9450    41.5720 hc         1 N8L       0.041033
     37 H1           5.0450     7.6840    43.3030 hc         1 N8L       0.041033
     38 H34          4.2690     9.0660    42.5330 hc         1 N8L       0.041033
     39 H4          11.2510     7.2630    44.5700 hn         1 N8L       0.374000
     40 H37         14.1210    11.7000    40.2260 h4         1 N8L       0.019100
     41 C14          6.4220    10.0120    44.0870 c          1 N8L       0.601100
@<TRIPOS>BOND
     1     1     2 1   
     2     1    21 1   
     3     1    22 1   
     4     1    23 1   
     5     2     4 2   
     6     2    16 1   
     7     3     4 1   
     8     3    17 2   
     9     3    18 1   
    10     4     5 1   
    11     5     6 1   
    12     5    15 1   
    13     5    24 1   
    14     6     7 1   
    15     6    25 1   
    16     6    26 1   
    17     7     8 1   
    18     7    27 1   
    19     7    28 1   
    20     8    15 1   
    21     8    29 1   
    22     8    30 1   
    23     9    13 1   
    24     9    31 1   
    25     9    32 1   
    26     9    41 1   
    27    10    18 ar  
    28    10    20 ar  
    29    10    33 1   
    30    11    12 ar  
    31    11    19 ar  
    32    11    34 1   
    33    12    18 ar  
    34    12    35 1   
    35    13    36 1   
    36    13    37 1   
    37    13    38 1   
    38    14    41 2   
    39    15    41 1   
    40    16    17 1   
    41    16    39 1   
    42    19    20 ar  
    43    20    40 1   
@<TRIPOS>SUBSTRUCTURE
     1 N8L         1 TEMP              0 ****  ****    0 ROOT
