@<TRIPOS>MOLECULE
N8M
   42    44     1     0     0
SMALL
No Charge or Current Charge


@<TRIPOS>ATOM
      1 CG           5.5590     1.9510     0.6920 c3         1 N8M       0.150600
      2 N2           4.3230     1.2120     1.0370 n3         1 N8M      -0.713600
      3 CE           3.3570     2.0640     1.7700 c3         1 N8M       0.150600
      4 C5           3.7390     0.5140    -0.1490 c3         1 N8M       0.175800
      5 C4           2.5500    -0.4530     0.1290 c5         1 N8M       0.165300
      6 O4           1.3170     0.2740     0.3160 os         1 N8M      -0.455000
      7 C1           0.2400    -0.6840     0.2540 c5         1 N8M       0.304300
      8 N9          -0.9780    -0.0250    -0.2200 na         1 N8M      -0.286300
      9 C10         -2.2060    -0.0040     0.3910 ca         1 N8M       0.141500
     10 N3          -2.6190    -0.5560     1.5500 nb         1 N8M      -0.218000
     11 C2          -3.9180    -0.3520     1.8750 ca         1 N8M       0.183900
     12 N1          -4.8320     0.3440     1.1570 nb         1 N8M      -0.301000
     13 C6          -4.3900     0.8830     0.0110 ca         1 N8M       0.449900
     14 N6          -5.3070     1.5790    -0.7130 nv         1 N8M      -1.066900
     15 C7          -3.0530     0.7210    -0.4100 ca         1 N8M      -0.095600
     16 N7          -2.4270     1.1910    -1.5590 nc         1 N8M      -0.558100
     17 C8          -1.1780     0.7220    -1.4000 cd         1 N8M       0.418800
     18 C11          0.7750    -1.8970    -0.5970 c5         1 N8M       0.101300
     19 O2           0.9750    -3.0830     0.1800 oh         1 N8M      -0.701000
     20 C3           2.1790    -1.3920    -1.0580 c5         1 N8M       0.088300
     21 O3           3.0820    -2.5030    -1.2410 oh         1 N8M      -0.704000
     22 C9          -0.1280     0.9800    -2.4480 c3         1 N8M      -0.107400
     23 HG           5.3440     2.7680    -0.0110 h1         1 N8M       0.033700
     24 HGA          6.0180     2.3830     1.5910 h1         1 N8M       0.033700
     25 HGB          6.2960     1.2830     0.2270 h1         1 N8M       0.033700
     26 HE           2.9240     2.8270     1.1090 h1         1 N8M       0.033700
     27 HEA          2.5400     1.4650     2.1920 h1         1 N8M       0.033700
     28 HEB          3.8500     2.5770     2.6080 h1         1 N8M       0.033700
     29 H5           3.4140     1.2510    -0.8960 h1         1 N8M       0.039700
     30 H5'A         4.5300    -0.0820    -0.6230 h1         1 N8M       0.039700
     31 H4           2.7710    -1.0350     1.0340 h1         1 N8M       0.089700
     32 H1           0.0150    -1.0390     1.2690 h2         1 N8M       0.122700
     33 H2          -4.2630    -0.7940     2.8080 h5         1 N8M       0.047100
     34 HN6         -6.2910     1.4120    -0.5220 hn         1 N8M       0.506500
     35 HN6A        -5.0600     1.8050    -1.6730 hn         1 N8M       0.506500
     36 H6           0.1260    -2.1040    -1.4590 h1         1 N8M       0.064700
     37 HO2          1.8730    -3.3770    -0.1300 ho         1 N8M       0.524000
     38 H3           2.0920    -0.8130    -1.9880 h1         1 N8M       0.049700
     39 HO3          3.7870    -2.2180    -1.8730 ho         1 N8M       0.514000
     40 H9           0.1380     0.0540    -2.9670 hc         1 N8M       0.057033
     41 H9A         -0.4860     1.6900    -3.2020 hc         1 N8M       0.057033
     42 H9B          0.7790     1.4050    -2.0060 hc         1 N8M       0.057033
@<TRIPOS>BOND
     1     1     2 1   
     2     1    23 1   
     3     1    24 1   
     4     1    25 1   
     5     2     3 1   
     6     2     4 1   
     7     3    26 1   
     8     3    27 1   
     9     3    28 1   
    10     4     5 1   
    11     4    29 1   
    12     4    30 1   
    13     5     6 1   
    14     5    20 1   
    15     5    31 1   
    16     6     7 1   
    17     7     8 1   
    18     7    18 1   
    19     7    32 1   
    20     8     9 1   
    21     8    17 1   
    22     9    10 ar  
    23     9    15 ar  
    24    10    11 ar  
    25    11    12 ar  
    26    11    33 1   
    27    12    13 ar  
    28    13    14 1   
    29    13    15 ar  
    30    14    34 1   
    31    14    35 1   
    32    15    16 1   
    33    16    17 2   
    34    17    22 1   
    35    18    19 1   
    36    18    20 1   
    37    18    36 1   
    38    19    37 1   
    39    20    21 1   
    40    20    38 1   
    41    21    39 1   
    42    22    40 1   
    43    22    41 1   
    44    22    42 1   
@<TRIPOS>SUBSTRUCTURE
     1 N8M         1 TEMP              0 ****  ****    0 ROOT
