@<TRIPOS>MOLECULE
N8M
   42    44     1     0     0
SMALL
bcc


@<TRIPOS>ATOM
      1 CG           5.4090     1.9440     0.6410 c3         1 N8M       0.150600
      2 N2           4.1970     1.2490     1.0190 n3         1 N8M      -0.713600
      3 CE           3.3100     2.1280     1.7530 c3         1 N8M       0.150600
      4 C5           3.5780     0.6320    -0.1360 c3         1 N8M       0.175800
      5 C4           2.5140    -0.3990     0.1900 c5         1 N8M       0.142100
      6 O4           1.2530     0.2100     0.4280 os         1 N8M      -0.408600
      7 C1           0.2340    -0.7390     0.2350 c5         1 N8M       0.251800
      8 N9          -0.9320    -0.0700    -0.2830 na         1 N8M      -0.257000
      9 C10         -2.1460    -0.0600     0.3500 ca         1 N8M       0.469800
     10 N3          -2.4830    -0.6520     1.4920 nb         1 N8M      -0.744000
     11 C2          -3.7500    -0.4330     1.8040 ca         1 N8M       0.709900
     12 N1          -4.6560     0.2690     1.1300 nb         1 N8M      -0.827000
     13 C6          -4.2990     0.8580    -0.0180 ca         1 N8M       0.778200
     14 N6          -5.2040     1.5690    -0.6940 nv         1 N8M      -0.956500
     15 C7          -2.9730     0.7020    -0.4550 ca         1 N8M      -0.226200
     16 N7          -2.2920     1.1590    -1.5510 nc         1 N8M      -0.558100
     17 C8          -1.0830     0.6890    -1.4270 cd         1 N8M       0.418800
     18 C11          0.8150    -1.8660    -0.6440 c5         1 N8M       0.078100
     19 O2           0.8710    -3.0340     0.1300 oh         1 N8M      -0.578800
     20 C3           2.2280    -1.3490    -0.9710 c5         1 N8M       0.065100
     21 O3           3.1910    -2.3650    -1.0280 oh         1 N8M      -0.581800
     22 C9           0.0040     0.9410    -2.4030 c3         1 N8M      -0.107400
     23 HG           5.2360     2.7790    -0.0550 h1         1 N8M       0.033700
     24 HGA          5.8960     2.3500     1.5290 h1         1 N8M       0.033700
     25 HGB          6.1070     1.2540     0.1640 h1         1 N8M       0.033700
     26 HE           2.9460     2.9760     1.1530 h1         1 N8M       0.033700
     27 HEA          2.4420     1.5880     2.1270 h1         1 N8M       0.033700
     28 HEB          3.8390     2.5360     2.6150 h1         1 N8M       0.033700
     29 H5           3.1550     1.3720    -0.8390 h1         1 N8M       0.039700
     30 H5'A         4.3620     0.1020    -0.6830 h1         1 N8M       0.039700
     31 H4           2.8370    -0.9790     1.0670 h1         1 N8M       0.089700
     32 H1          -0.0830    -1.1780     1.1860 h2         1 N8M       0.122700
     33 H2          -4.1000    -0.8850     2.7260 h5         1 N8M       0.047100
     34 HN6         -6.1520     1.6260    -0.3660 hn         1 N8M       0.451300
     35 HN6A        -4.9780     1.9930    -1.5760 hn         1 N8M       0.451300
     36 H6           0.2150    -2.0220    -1.5480 h1         1 N8M       0.064700
     37 HO2          1.6430    -3.5340    -0.1630 ho         1 N8M       0.425000
     38 H3           2.2040    -0.7760    -1.9050 h1         1 N8M       0.049700
     39 HO3          3.2620    -2.6790    -1.9350 ho         1 N8M       0.415000
     40 H9           0.3740     0.0190    -2.8520 hc         1 N8M       0.057033
     41 H9A         -0.3850     1.5640    -3.2050 hc         1 N8M       0.057033
     42 H9B          0.8490     1.4570    -1.9480 hc         1 N8M       0.057033
@<TRIPOS>BOND
     1     1     2 1   
     2     1    23 1   
     3     1    24 1   
     4     1    25 1   
     5     2     3 1   
     6     2     4 1   
     7     3    26 1   
     8     3    27 1   
     9     3    28 1   
    10     4     5 1   
    11     4    29 1   
    12     4    30 1   
    13     5     6 1   
    14     5    20 1   
    15     5    31 1   
    16     6     7 1   
    17     7     8 1   
    18     7    18 1   
    19     7    32 1   
    20     8     9 1   
    21     8    17 1   
    22     9    10 ar  
    23     9    15 ar  
    24    10    11 ar  
    25    11    12 ar  
    26    11    33 1   
    27    12    13 ar  
    28    13    14 1   
    29    13    15 ar  
    30    14    34 1   
    31    14    35 1   
    32    15    16 1   
    33    16    17 2   
    34    17    22 1   
    35    18    19 1   
    36    18    20 1   
    37    18    36 1   
    38    19    37 1   
    39    20    21 1   
    40    20    38 1   
    41    21    39 1   
    42    22    40 1   
    43    22    41 1   
    44    22    42 1   
@<TRIPOS>SUBSTRUCTURE
     1 N8M         1 TEMP              0 ****  ****    0 ROOT
