@<TRIPOS>MOLECULE
N8N
   30    32     1     0     0
SMALL
abcg2


@<TRIPOS>ATOM
      1 CAJ         -1.4980    -0.4590     0.8220 ca         1 N8N      -0.116000
      2 CAO         -2.7700     0.0670     0.6650 ca         1 N8N       0.125000
      3 CL          -3.7400     0.3510     2.0720 cl         1 N8N      -0.202000
      4 CAG         -3.2830     0.3580    -0.5880 ca         1 N8N      -0.103000
      5 CAE         -2.4900     0.1250    -1.7040 ca         1 N8N      -0.096000
      6 CAH         -1.2070    -0.3800    -1.5710 ca         1 N8N      -0.083000
      7 CAP         -0.7170    -0.6760    -0.3060 ca         1 N8N      -0.027000
      8 NAS          0.5960    -1.1810    -0.1490 n          1 N8N      -0.236400
      9 CAN          0.9640    -2.3810    -0.6630 c          1 N8N       0.583000
     10 OAA          0.2340    -3.1080    -1.3020 o          1 N8N      -0.514000
     11 CAK          2.3890    -2.7340    -0.3040 c5         1 N8N      -0.038400
     12 SAM          3.1530    -1.2560     0.3930 ss         1 N8N      -0.382000
     13 CAR          1.5430    -0.4180     0.6350 c5         1 N8N       0.219400
     14 CAQ          1.6290     1.0110     0.1670 ca         1 N8N       0.324300
     15 CAI          1.5720     2.0490     1.0840 ca         1 N8N      -0.140000
     16 CAD          1.6680     3.3530     0.6160 ca         1 N8N      -0.071000
     17 CAC          1.8050     3.5610    -0.7460 ca         1 N8N      -0.153000
     18 CAF          1.8410     2.4500    -1.5810 ca         1 N8N       0.340900
     19 NAL          1.7630     1.2050    -1.1390 nb         1 N8N      -0.641000
     20 HAJ         -1.1210    -0.6970     1.8080 ha         1 N8N       0.130000
     21 HAG         -4.2790     0.7640    -0.6960 ha         1 N8N       0.131000
     22 HAE         -2.8780     0.3550    -2.6870 ha         1 N8N       0.122000
     23 HAH         -0.5840    -0.5260    -2.4420 ha         1 N8N       0.139000
     24 HAR          1.2790    -0.4460     1.6960 h2         1 N8N       0.081700
     25 HAK1         2.3770    -3.5600     0.4100 h1         1 N8N       0.103700
     26 HAK2         2.9270    -3.0590    -1.1940 h1         1 N8N       0.103700
     27 HAI          1.4540     1.8450     2.1400 ha         1 N8N       0.126000
     28 HAD          1.6310     4.1860     1.3050 ha         1 N8N       0.124000
     29 HAC          1.8800     4.5570    -1.1600 ha         1 N8N       0.127000
     30 HAF          1.9410     2.5780    -2.6530 h4         1 N8N       0.023100
@<TRIPOS>BOND
     1     1     2 ar  
     2     1     7 ar  
     3     1    20 1   
     4     2     3 1   
     5     2     4 ar  
     6     4     5 ar  
     7     4    21 1   
     8     5     6 ar  
     9     5    22 1   
    10     6     7 ar  
    11     6    23 1   
    12     7     8 1   
    13     8     9 1   
    14     8    13 1   
    15     9    10 2   
    16     9    11 1   
    17    11    12 1   
    18    11    25 1   
    19    11    26 1   
    20    12    13 1   
    21    13    14 1   
    22    13    24 1   
    23    14    15 ar  
    24    14    19 ar  
    25    15    16 ar  
    26    15    27 1   
    27    16    17 ar  
    28    16    28 1   
    29    17    18 ar  
    30    17    29 1   
    31    18    19 ar  
    32    18    30 1   
@<TRIPOS>SUBSTRUCTURE
     1 N8N         1 TEMP              0 ****  ****    0 ROOT
