@<TRIPOS>MOLECULE
N8N
   30    32     1     0     0
SMALL
No Charge or Current Charge


@<TRIPOS>ATOM
      1 CAJ         -1.2620     0.0100     0.6310 ca         1 N8N      -0.116000
      2 CAO         -2.5770     0.4950     0.5410 ca         1 N8N       0.125000
      3 Cl          -3.3280     1.2480     1.9410 cl         1 N8N      -0.202000
      4 CAG         -3.2990     0.3630    -0.6540 ca         1 N8N      -0.103000
      5 CAE         -2.7080    -0.2790    -1.7540 ca         1 N8N      -0.096000
      6 CAH         -1.3910    -0.7630    -1.6630 ca         1 N8N      -0.083000
      7 CAP         -0.6250    -0.5630    -0.4930 ca         1 N8N      -0.027000
      8 NAS          0.6700    -1.1870    -0.3320 n          1 N8N      -0.236400
      9 CAN          0.9420    -2.5190    -0.7360 c          1 N8N       0.583000
     10 OAA          0.1530    -3.2450    -1.3280 o          1 N8N      -0.514000
     11 CAK          2.3550    -2.9190    -0.2810 c5         1 N8N      -0.038400
     12 SAM          3.3250    -1.3590    -0.0770 ss         1 N8N      -0.382000
     13 CAR          1.7570    -0.4950     0.4240 c5         1 N8N       0.219400
     14 CAQ          1.7400     1.0160     0.1050 ca         1 N8N       0.324300
     15 CAI          1.5180     1.9290     1.1600 ca         1 N8N      -0.140000
     16 CAD          1.4880     3.3090     0.9010 ca         1 N8N      -0.071000
     17 CAC          1.6880     3.7390    -0.4180 ca         1 N8N      -0.153000
     18 CAF          1.9110     2.7810    -1.4190 ca         1 N8N       0.340900
     19 NAL          1.9400     1.4520    -1.1700 nb         1 N8N      -0.641000
     20 HAJ         -0.7420     0.0860     1.5820 ha         1 N8N       0.130000
     21 HAG         -4.3180     0.7350    -0.7190 ha         1 N8N       0.131000
     22 HAE         -3.2730    -0.4100    -2.6750 ha         1 N8N       0.122000
     23 HAH         -0.9550    -1.2630    -2.5240 ha         1 N8N       0.139000
     24 HAR          1.5590    -0.6740     1.4870 h2         1 N8N       0.081700
     25 HAK1         2.2720    -3.4490     0.6760 h1         1 N8N       0.103700
     26 HAK2         2.8100    -3.5770    -1.0310 h1         1 N8N       0.103700
     27 HAI          1.3670     1.5670     2.1730 ha         1 N8N       0.126000
     28 HAD          1.3150     4.0250     1.7030 ha         1 N8N       0.124000
     29 HAC          1.6740     4.7960    -0.6690 ha         1 N8N       0.127000
     30 HAF          2.0730     3.0850    -2.4520 h4         1 N8N       0.023100
@<TRIPOS>BOND
     1     1     2 ar  
     2     1     7 ar  
     3     1    20 1   
     4     2     3 1   
     5     2     4 ar  
     6     4     5 ar  
     7     4    21 1   
     8     5     6 ar  
     9     5    22 1   
    10     6     7 ar  
    11     6    23 1   
    12     7     8 1   
    13     8     9 1   
    14     8    13 1   
    15     9    10 2   
    16     9    11 1   
    17    11    12 1   
    18    11    25 1   
    19    11    26 1   
    20    12    13 1   
    21    13    14 1   
    22    13    24 1   
    23    14    15 ar  
    24    14    19 ar  
    25    15    16 ar  
    26    15    27 1   
    27    16    17 ar  
    28    16    28 1   
    29    17    18 ar  
    30    17    29 1   
    31    18    19 ar  
    32    18    30 1   
@<TRIPOS>SUBSTRUCTURE
     1 N8N         1 TEMP              0 ****  ****    0 ROOT
