@<TRIPOS>MOLECULE
N8P
   21    21     1     0     0
SMALL
No Charge or Current Charge


@<TRIPOS>ATOM
      1 C7         -43.5110     2.4640   -44.2380 c          1 N8P       0.617100
      2 O9         -44.1450     2.8130   -43.2470 o          1 N8P      -0.679100
      3 C8         -42.6260     3.4680   -44.9830 c3         1 N8P      -0.169100
      4 N          -43.6010     1.1430   -44.7260 n          1 N8P      -0.369800
      5 CA         -42.8340     0.6210   -45.8990 c5         1 N8P      -0.039300
      6 CB         -43.5680    -0.7270   -46.1670 c5         1 N8P      -0.069400
      7 CG         -43.9420    -1.1910   -44.7370 c5         1 N8P      -0.092400
      8 CD         -44.4620     0.1210   -44.0940 c5         1 N8P       0.111000
      9 C          -41.3040     0.3540   -45.6560 c          1 N8P       0.708000
     10 O          -40.5620     0.3120   -46.6270 o          1 N8P      -0.718500
     11 OXT        -40.8660     0.2960   -44.5140 o          1 N8P      -0.718500
     12 H81        -42.6540     4.4680   -44.5350 hc         1 N8P       0.052033
     13 H82        -41.6010     3.0850   -45.0320 hc         1 N8P       0.052033
     14 H83        -42.9200     3.4960   -46.0380 hc         1 N8P       0.052033
     15 HA         -42.9270     1.2850   -46.7670 h1         1 N8P       0.042700
     16 HB2        -42.9490    -1.4540   -46.7030 hc         1 N8P       0.037200
     17 HB3        -44.4700    -0.5650   -46.7690 hc         1 N8P       0.037200
     18 HG2        -43.0640    -1.5720   -44.2020 hc         1 N8P       0.039700
     19 HG3        -44.6960    -1.9860   -44.7320 hc         1 N8P       0.039700
     20 HD2        -44.3600     0.1070   -43.0000 h1         1 N8P       0.033700
     21 HD3        -45.5150     0.3010   -44.3460 h1         1 N8P       0.033700
@<TRIPOS>BOND
     1     1     2 2   
     2     1     3 1   
     3     1     4 1   
     4     3    12 1   
     5     3    13 1   
     6     3    14 1   
     7     4     5 1   
     8     4     8 1   
     9     5     6 1   
    10     5     9 1   
    11     5    15 1   
    12     6     7 1   
    13     6    16 1   
    14     6    17 1   
    15     7     8 1   
    16     7    18 1   
    17     7    19 1   
    18     8    20 1   
    19     8    21 1   
    20     9    10 1   
    21     9    11 1   
@<TRIPOS>SUBSTRUCTURE
     1 N8P         1 TEMP              0 ****  ****    0 ROOT
