@<TRIPOS>MOLECULE
N8P
   21    21     1     0     0
SMALL
bcc


@<TRIPOS>ATOM
      1 C7         -43.5350     2.4120   -44.2840 c          1 N8P       0.684100
      2 O9         -44.1590     2.7410   -43.2780 o          1 N8P      -0.679100
      3 C8         -42.7110     3.4090   -45.0640 c3         1 N8P      -0.169100
      4 N          -43.5690     1.1580   -44.7530 n          1 N8P      -0.436800
      5 CA         -42.7950     0.6330   -45.8650 c5         1 N8P      -0.039300
      6 CB         -43.5580    -0.6500   -46.2010 c5         1 N8P      -0.069400
      7 CG         -43.9740    -1.1600   -44.8240 c5         1 N8P      -0.092400
      8 CD         -44.3120     0.1170   -44.0560 c5         1 N8P       0.111000
      9 C          -41.3120     0.3340   -45.5120 c          1 N8P       0.918600
     10 O          -40.6300    -0.0820   -46.4690 o          1 N8P      -0.823800
     11 OXT        -40.9460     0.5220   -44.3390 o          1 N8P      -0.823800
     12 H81        -42.7860     4.3900   -44.6010 hc         1 N8P       0.052033
     13 H82        -41.6610     3.1160   -45.0900 hc         1 N8P       0.052033
     14 H83        -43.0500     3.4910   -46.0980 hc         1 N8P       0.052033
     15 HA         -42.8200     1.3250   -46.7120 h1         1 N8P       0.042700
     16 HB2        -42.9520    -1.3570   -46.7640 hc         1 N8P       0.037200
     17 HB3        -44.4400    -0.4150   -46.8010 hc         1 N8P       0.037200
     18 HG2        -43.1420    -1.6830   -44.3500 hc         1 N8P       0.039700
     19 HG3        -44.8170    -1.8500   -44.8580 hc         1 N8P       0.039700
     20 HD2        -44.0250     0.0570   -43.0040 h1         1 N8P       0.033700
     21 HD3        -45.3840     0.3300   -44.0880 h1         1 N8P       0.033700
@<TRIPOS>BOND
     1     1     2 2   
     2     1     3 1   
     3     1     4 1   
     4     3    12 1   
     5     3    13 1   
     6     3    14 1   
     7     4     5 1   
     8     4     8 1   
     9     5     6 1   
    10     5     9 1   
    11     5    15 1   
    12     6     7 1   
    13     6    16 1   
    14     6    17 1   
    15     7     8 1   
    16     7    18 1   
    17     7    19 1   
    18     8    20 1   
    19     8    21 1   
    20     9    10 1   
    21     9    11 1   
@<TRIPOS>SUBSTRUCTURE
     1 N8P         1 TEMP              0 ****  ****    0 ROOT
