@<TRIPOS>MOLECULE
N8Q
   32    34     1     0     0
SMALL
abcg2


@<TRIPOS>ATOM
      1 S01         -9.0970    33.8880   -18.3940 s          1 N8Q      -0.622400
      2 O02         -4.8680    36.3920   -18.1040 os         1 N8Q      -0.487000
      3 N03         -7.1600    34.9410   -16.7550 n          1 N8Q      -0.234300
      4 N04         -7.6640    32.9270   -16.3190 ns         1 N8Q      -0.266400
      5 N05         -6.7970    33.2840   -15.3620 nc         1 N8Q      -0.488300
      6 N06         -5.3070    35.7180   -12.3450 nb         1 N8Q      -0.668000
      7 C07         -6.2180    36.4550   -18.5390 c5         1 N8Q       0.155300
      8 C08         -6.3080    35.4800   -19.7070 c5         1 N8Q      -0.105400
      9 C09         -4.9180    35.6100   -20.3160 c5         1 N8Q      -0.114400
     10 C10         -7.1710    36.2580   -17.3650 c3         1 N8Q       0.104000
     11 C11         -4.0560    35.7300   -19.0700 c5         1 N8Q       0.155600
     12 C12         -6.5040    34.5190   -15.6200 cd         1 N8Q       0.424500
     13 C13         -7.9570    33.9110   -17.1750 cs         1 N8Q       0.368400
     14 C14         -5.7160    35.3140   -14.6740 ca         1 N8Q      -0.185900
     15 C15         -4.7220    36.2240   -15.0170 ca         1 N8Q      -0.041000
     16 C16         -5.9670    35.1070   -13.3140 ca         1 N8Q       0.377900
     17 C17         -4.0350    36.8700   -14.0020 ca         1 N8Q      -0.171000
     18 C18         -4.3570    36.5830   -12.6860 ca         1 N8Q       0.355900
     19 H1          -8.0700    32.0030   -16.3240 hn         1 N8Q       0.509000
     20 H2          -6.4360    37.4680   -18.9030 h1         1 N8Q       0.055700
     21 H3          -7.1150    35.7330   -20.3930 hc         1 N8Q       0.074200
     22 H4          -6.4750    34.4570   -19.3670 hc         1 N8Q       0.074200
     23 H5          -4.6380    34.7590   -20.9360 hc         1 N8Q       0.058700
     24 H6          -4.8480    36.5100   -20.9300 hc         1 N8Q       0.058700
     25 H7          -6.9620    36.9930   -16.5880 h1         1 N8Q       0.085700
     26 H8          -8.1880    36.4410   -17.7150 h1         1 N8Q       0.085700
     27 H9          -3.7710    34.7430   -18.6930 h1         1 N8Q       0.047200
     28 H10         -3.1440    36.3080   -19.2310 h1         1 N8Q       0.047200
     29 H11         -4.4790    36.4140   -16.0510 ha         1 N8Q       0.156000
     30 H12         -6.7470    34.4180   -13.0080 h4         1 N8Q       0.034100
     31 H13         -3.2520    37.5800   -14.2300 ha         1 N8Q       0.131000
     32 H14         -3.8280    37.0680   -11.8740 h4         1 N8Q       0.024100
@<TRIPOS>BOND
     1     1    13 2   
     2     2     7 1   
     3     2    11 1   
     4     3    10 1   
     5     3    12 1   
     6     3    13 1   
     7     4     5 1   
     8     4    13 1   
     9     4    19 1   
    10     5    12 2   
    11     6    16 ar  
    12     6    18 ar  
    13     7     8 1   
    14     7    10 1   
    15     7    20 1   
    16     8     9 1   
    17     8    21 1   
    18     8    22 1   
    19     9    11 1   
    20     9    23 1   
    21     9    24 1   
    22    10    25 1   
    23    10    26 1   
    24    11    27 1   
    25    11    28 1   
    26    12    14 1   
    27    14    15 ar  
    28    14    16 ar  
    29    15    17 ar  
    30    15    29 1   
    31    16    30 1   
    32    17    18 ar  
    33    17    31 1   
    34    18    32 1   
@<TRIPOS>SUBSTRUCTURE
     1 N8Q         1 TEMP              0 ****  ****    0 ROOT
