@<TRIPOS>MOLECULE
N8Q
   32    34     1     0     0
SMALL
No Charge or Current Charge


@<TRIPOS>ATOM
      1 S01         -8.9630    33.6280   -18.4020 s          1 N8Q      -0.622400
      2 O02         -4.7690    35.5590   -18.1900 os         1 N8Q      -0.487000
      3 N03         -7.1070    34.8010   -16.6890 n          1 N8Q      -0.234300
      4 N04         -7.7460    32.8540   -16.1070 ns         1 N8Q      -0.266400
      5 N05         -6.9590    33.2330   -15.0810 nc         1 N8Q      -0.488300
      6 N06         -5.3170    35.8190   -12.1720 nb         1 N8Q      -0.668000
      7 C07         -5.9820    36.2800   -18.4790 c5         1 N8Q       0.155300
      8 C08         -6.3510    35.6810   -19.8540 c5         1 N8Q      -0.105400
      9 C09         -4.9740    35.7720   -20.5650 c5         1 N8Q      -0.114400
     10 C10         -7.0420    36.1270   -17.3470 c3         1 N8Q       0.104000
     11 C11         -3.9690    35.5430   -19.3950 c5         1 N8Q       0.155600
     12 C12         -6.5700    34.4450   -15.4380 cd         1 N8Q       0.424500
     13 C13         -7.9150    33.7570   -17.1050 cs         1 N8Q       0.368400
     14 C14         -5.8240    35.3200   -14.5070 ca         1 N8Q      -0.185900
     15 C15         -4.8860    36.2930   -14.9180 ca         1 N8Q      -0.041000
     16 C16         -5.9760    35.1090   -13.1200 ca         1 N8Q       0.377900
     17 C17         -4.2010    37.0280   -13.9380 ca         1 N8Q      -0.171000
     18 C18         -4.4490    36.7670   -12.5830 ca         1 N8Q       0.355900
     19 H1          -8.2380    31.9560   -16.1200 hn         1 N8Q       0.509000
     20 H2          -5.7450    37.3490   -18.5840 h1         1 N8Q       0.055700
     21 H3          -7.1370    36.2440   -20.3700 hc         1 N8Q       0.074200
     22 H4          -6.6800    34.6400   -19.7690 hc         1 N8Q       0.074200
     23 H5          -4.8630    35.0280   -21.3620 hc         1 N8Q       0.058700
     24 H6          -4.8210    36.7590   -21.0190 hc         1 N8Q       0.058700
     25 H7          -6.8560    36.8930   -16.5860 h1         1 N8Q       0.085700
     26 H8          -8.0290    36.3580   -17.7690 h1         1 N8Q       0.085700
     27 H9          -3.4540    34.5760   -19.4680 h1         1 N8Q       0.047200
     28 H10         -3.2170    36.3410   -19.3450 h1         1 N8Q       0.047200
     29 H11         -4.6650    36.4770   -15.9620 ha         1 N8Q       0.156000
     30 H12         -6.6650    34.3550   -12.7390 h4         1 N8Q       0.034100
     31 H13         -3.4780    37.7890   -14.2190 ha         1 N8Q       0.131000
     32 H14         -3.9290    37.3240   -11.8040 h4         1 N8Q       0.024100
@<TRIPOS>BOND
     1     1    13 2   
     2     2     7 1   
     3     2    11 1   
     4     3    10 1   
     5     3    12 1   
     6     3    13 1   
     7     4     5 1   
     8     4    13 1   
     9     4    19 1   
    10     5    12 2   
    11     6    16 ar  
    12     6    18 ar  
    13     7     8 1   
    14     7    10 1   
    15     7    20 1   
    16     8     9 1   
    17     8    21 1   
    18     8    22 1   
    19     9    11 1   
    20     9    23 1   
    21     9    24 1   
    22    10    25 1   
    23    10    26 1   
    24    11    27 1   
    25    11    28 1   
    26    12    14 1   
    27    14    15 ar  
    28    14    16 ar  
    29    15    17 ar  
    30    15    29 1   
    31    16    30 1   
    32    17    18 ar  
    33    17    31 1   
    34    18    32 1   
@<TRIPOS>SUBSTRUCTURE
     1 N8Q         1 TEMP              0 ****  ****    0 ROOT
