@<TRIPOS>MOLECULE
N8R
   48    49     1     0     0
SMALL
No Charge or Current Charge


@<TRIPOS>ATOM
      1 C01        120.7120   124.2250    77.4890 c3         1 N8R      -0.088100
      2 C02        119.2370   123.8090    77.6540 c3         1 N8R      -0.074400
      3 C03        118.9280   123.2160    79.0470 c3         1 N8R      -0.084400
      4 C04        117.4530   122.8020    79.2090 c3         1 N8R       0.165600
      5 C05        116.0810   121.7970    80.9950 ca         1 N8R       0.173100
      6 C06        114.9090   121.8170    80.2110 ca         1 N8R      -0.190000
      7 C07        113.7020   121.3190    80.7330 ca         1 N8R      -0.025500
      8 C08        113.6530   120.7890    82.0410 ca         1 N8R      -0.212600
      9 C09        114.8270   120.7870    82.8230 ca         1 N8R      -0.025500
     10 C10        116.0300   121.2850    82.2990 ca         1 N8R      -0.190000
     11 C11        112.3800   120.2210    82.6230 c          1 N8R       0.594700
     12 C12        111.4420   119.3900    81.7380 c3         1 N8R      -0.167400
     13 C13        111.7090   117.8890    81.9560 c3         1 N8R       0.177800
     14 C14        113.3900   116.1140    82.2870 c6         1 N8R       0.168800
     15 C15        114.9010   115.7750    82.2470 c6         1 N8R      -0.074900
     16 C16        115.4720   115.9410    80.8210 c6         1 N8R      -0.075400
     17 C17        115.1390   117.3480    80.2750 c6         1 N8R      -0.074900
     18 C18        113.6210   117.6340    80.3690 c6         1 N8R       0.168800
     19 N01        113.1230   117.4850    81.7700 n3         1 N8R      -0.721600
     20 O01        117.2930   122.2680    80.5340 os         1 N8R      -0.354100
     21 O02        112.0990   120.4210    83.8000 o          1 N8R      -0.532100
     22 H1         120.8830   124.6390    76.4890 hc         1 N8R       0.035367
     23 H2         120.9850   124.9890    78.2280 hc         1 N8R       0.035367
     24 H3         121.3760   123.3620    77.6210 hc         1 N8R       0.035367
     25 H4         118.5990   124.6850    77.4820 hc         1 N8R       0.038700
     26 H5         118.9860   123.0730    76.8810 hc         1 N8R       0.038700
     27 H6         119.5660   122.3400    79.2170 hc         1 N8R       0.056700
     28 H7         119.1780   123.9550    79.8190 hc         1 N8R       0.056700
     29 H8         116.8070   123.6780    79.0620 h1         1 N8R       0.037200
     30 H9         117.1990   122.0460    78.4530 h1         1 N8R       0.037200
     31 H10        114.9120   122.2150    79.2010 ha         1 N8R       0.125000
     32 H11        112.8080   121.3600    80.1140 ha         1 N8R       0.123500
     33 H12        114.8100   120.3830    83.8340 ha         1 N8R       0.123500
     34 H13        116.9310   121.2710    82.9060 ha         1 N8R       0.125000
     35 H14        111.5920   119.6070    80.6780 hc         1 N8R       0.059700
     36 H15        110.4020   119.5960    82.0160 hc         1 N8R       0.059700
     37 H16        111.3960   117.6480    82.9810 h1         1 N8R       0.040700
     38 H17        111.0590   117.3110    81.2830 h1         1 N8R       0.040700
     39 H19        112.8380   115.3700    81.6930 h1         1 N8R       0.028200
     40 H20        115.0610   114.7480    82.6000 hc         1 N8R       0.046700
     41 H21        115.4400   116.4340    82.9420 hc         1 N8R       0.046700
     42 H22        115.0440   115.1750    80.1590 hc         1 N8R       0.037200
     43 H23        116.5590   115.7830    80.8260 hc         1 N8R       0.037200
     44 H24        115.4700   117.4350    79.2320 hc         1 N8R       0.046700
     45 H25        115.6890   118.1090    80.8450 hc         1 N8R       0.046700
     46 H26        113.4480   118.6510    79.9930 h1         1 N8R       0.028200
     47 H27        113.0810   116.9480    79.7000 h1         1 N8R       0.028200
     48 H18        113.0400   116.0240    83.3260 h1         1 N8R       0.028200
@<TRIPOS>BOND
     1     1     2 1   
     2     1    22 1   
     3     1    23 1   
     4     1    24 1   
     5     2     3 1   
     6     2    25 1   
     7     2    26 1   
     8     3     4 1   
     9     3    27 1   
    10     3    28 1   
    11     4    20 1   
    12     4    29 1   
    13     4    30 1   
    14     5     6 ar  
    15     5    10 ar  
    16     5    20 1   
    17     6     7 ar  
    18     6    31 1   
    19     7     8 ar  
    20     7    32 1   
    21     8     9 ar  
    22     8    11 1   
    23     9    10 ar  
    24     9    33 1   
    25    10    34 1   
    26    11    12 1   
    27    11    21 2   
    28    12    13 1   
    29    12    35 1   
    30    12    36 1   
    31    13    19 1   
    32    13    37 1   
    33    13    38 1   
    34    14    15 1   
    35    14    19 1   
    36    14    39 1   
    37    14    48 1   
    38    15    16 1   
    39    15    40 1   
    40    15    41 1   
    41    16    17 1   
    42    16    42 1   
    43    16    43 1   
    44    17    18 1   
    45    17    44 1   
    46    17    45 1   
    47    18    19 1   
    48    18    46 1   
    49    18    47 1   
@<TRIPOS>SUBSTRUCTURE
     1 N8R         1 TEMP              0 ****  ****    0 ROOT
