@<TRIPOS>MOLECULE
N8R
   48    49     1     0     0
SMALL
abcg2


@<TRIPOS>ATOM
      1 C01        120.5030   126.0490    77.3890 c3         1 N8R      -0.088100
      2 C02        119.2820   125.1420    77.5290 c3         1 N8R      -0.074400
      3 C03        119.0960   124.6300    78.9570 c3         1 N8R      -0.084400
      4 C04        117.8890   123.7270    79.0810 c3         1 N8R       0.165600
      5 C05        116.8100   122.4510    80.8100 ca         1 N8R       0.173100
      6 C06        115.8260   121.9730    79.9410 ca         1 N8R      -0.190000
      7 C07        114.8540   121.1050    80.4200 ca         1 N8R      -0.025500
      8 C08        114.8330   120.6960    81.7560 ca         1 N8R      -0.212600
      9 C09        115.8310   121.1900    82.6130 ca         1 N8R      -0.025500
     10 C10        116.8030   122.0500    82.1540 ca         1 N8R      -0.190000
     11 C11        113.8000   119.7840    82.3040 c          1 N8R       0.594700
     12 C12        112.7170   119.2580    81.3780 c3         1 N8R      -0.167400
     13 C13        112.0290   118.0070    81.9050 c3         1 N8R       0.177800
     14 C14        112.4720   115.7960    82.7800 c6         1 N8R       0.168800
     15 C15        113.4470   114.6240    82.7880 c6         1 N8R      -0.074900
     16 C16        113.6070   114.0360    81.3870 c6         1 N8R      -0.075400
     17 C17        113.9680   115.1390    80.3920 c6         1 N8R      -0.074900
     18 C18        112.9740   116.2910    80.4770 c6         1 N8R       0.168800
     19 N01        112.8920   116.8290    81.8350 n3         1 N8R      -0.721600
     20 O01        117.7990   123.2950    80.4500 os         1 N8R      -0.354100
     21 O02        113.7980   119.4910    83.4930 o          1 N8R      -0.532100
     22 H1         120.6170   126.4030    76.3630 hc         1 N8R       0.035367
     23 H2         120.4160   126.9230    78.0400 hc         1 N8R       0.035367
     24 H3         121.4170   125.5170    77.6650 hc         1 N8R       0.035367
     25 H4         118.3840   125.6860    77.2200 hc         1 N8R       0.038700
     26 H5         119.3780   124.2900    76.8490 hc         1 N8R       0.038700
     27 H6         119.9880   124.0790    79.2710 hc         1 N8R       0.056700
     28 H7         118.9820   125.4760    79.6410 hc         1 N8R       0.056700
     29 H8         116.9710   124.2570    78.8090 h1         1 N8R       0.037200
     30 H9         117.9870   122.8510    78.4330 h1         1 N8R       0.037200
     31 H10        115.8100   122.2680    78.9030 ha         1 N8R       0.125000
     32 H11        114.1030   120.7530    79.7260 ha         1 N8R       0.123500
     33 H12        115.8270   120.8820    83.6490 ha         1 N8R       0.123500
     34 H13        117.5730   122.4270    82.8150 ha         1 N8R       0.125000
     35 H14        113.1220   119.0850    80.3830 hc         1 N8R       0.059700
     36 H15        111.9820   120.0640    81.2640 hc         1 N8R       0.059700
     37 H16        111.7610   118.1670    82.9490 h1         1 N8R       0.040700
     38 H17        111.0920   117.8460    81.3490 h1         1 N8R       0.040700
     39 H19        111.4600   115.4240    82.5320 h1         1 N8R       0.028200
     40 H20        113.0910   113.8640    83.4890 hc         1 N8R       0.046700
     41 H21        114.4180   114.9740    83.1530 hc         1 N8R       0.046700
     42 H22        112.6630   113.5730    81.0810 hc         1 N8R       0.037200
     43 H23        114.3650   113.2490    81.3830 hc         1 N8R       0.037200
     44 H24        113.9830   114.7500    79.3710 hc         1 N8R       0.046700
     45 H25        114.9710   115.5190    80.6110 hc         1 N8R       0.046700
     46 H26        113.2760   117.0890    79.7960 h1         1 N8R       0.028200
     47 H27        111.9790   115.9420    80.1440 h1         1 N8R       0.028200
     48 H18        112.4140   116.2460    83.7730 h1         1 N8R       0.028200
@<TRIPOS>BOND
     1     1     2 1   
     2     1    22 1   
     3     1    23 1   
     4     1    24 1   
     5     2     3 1   
     6     2    25 1   
     7     2    26 1   
     8     3     4 1   
     9     3    27 1   
    10     3    28 1   
    11     4    20 1   
    12     4    29 1   
    13     4    30 1   
    14     5     6 ar  
    15     5    10 ar  
    16     5    20 1   
    17     6     7 ar  
    18     6    31 1   
    19     7     8 ar  
    20     7    32 1   
    21     8     9 ar  
    22     8    11 1   
    23     9    10 ar  
    24     9    33 1   
    25    10    34 1   
    26    11    12 1   
    27    11    21 2   
    28    12    13 1   
    29    12    35 1   
    30    12    36 1   
    31    13    19 1   
    32    13    37 1   
    33    13    38 1   
    34    14    15 1   
    35    14    19 1   
    36    14    39 1   
    37    14    48 1   
    38    15    16 1   
    39    15    40 1   
    40    15    41 1   
    41    16    17 1   
    42    16    42 1   
    43    16    43 1   
    44    17    18 1   
    45    17    44 1   
    46    17    45 1   
    47    18    19 1   
    48    18    46 1   
    49    18    47 1   
@<TRIPOS>SUBSTRUCTURE
     1 N8R         1 TEMP              0 ****  ****    0 ROOT
