@<TRIPOS>MOLECULE
N8S
   60    64     1     0     0
SMALL
No Charge or Current Charge


@<TRIPOS>ATOM
      1 C4         -20.9180   -34.2010    25.7610 cc         1 N8S      -0.156000
      2 C7         -23.3070   -33.3180    25.8690 c3         1 N8S       0.073900
      3 C8         -18.8750   -35.5140    25.0510 ca         1 N8S      -0.003000
      4 C10        -16.8140   -35.6070    26.3780 ca         1 N8S      -0.187000
      5 C13        -18.1920   -36.1760    24.0120 ca         1 N8S      -0.012000
      6 C17        -14.0140   -37.9360    21.8250 ca         1 N8S      -0.025000
      7 C20        -12.2950   -39.0190    19.8600 ca         1 N8S      -0.136000
      8 C21        -13.3260   -38.1450    19.4670 ca         1 N8S       0.301000
      9 C22        -14.1840   -37.6070    20.4590 ca         1 N8S       0.138000
     10 C28        -11.1010   -36.5160    17.8080 ca         1 N8S      -0.342500
     11 C1         -21.2530   -36.6730    23.0220 c3         1 N8S      -0.127400
     12 C11        -16.1340   -36.2850    25.3310 ca         1 N8S       0.087000
     13 C12        -16.8340   -36.5640    24.1210 ca         1 N8S      -0.148600
     14 C14        -16.2260   -37.2630    22.9050 c          1 N8S       0.626700
     15 C18        -12.9500   -38.7850    22.1940 ca         1 N8S       0.087000
     16 C19        -12.1030   -39.3300    21.2170 ca         1 N8S      -0.074000
     17 C2         -21.3260   -35.5870    24.0640 cd         1 N8S       0.284300
     18 C29         -9.8080   -37.0360    18.0300 ca         1 N8S       0.013000
     19 C3         -20.2970   -35.0980    24.9280 cd         1 N8S      -0.171000
     20 C30         -8.8480   -36.2620    18.7060 ca         1 N8S      -0.148000
     21 C31         -9.1710   -34.9740    19.1640 ca         1 N8S      -0.029000
     22 C32        -10.4610   -34.4610    18.9460 ca         1 N8S      -0.171000
     23 C33        -11.4230   -35.2290    18.2720 ca         1 N8S       0.269000
     24 C37        -14.2560   -36.3500    26.6980 ca         1 N8S       0.201900
     25 C39        -16.0930   -35.3440    27.5680 ca         1 N8S       0.421900
     26 C9         -18.1620   -35.2200    26.2260 ca         1 N8S      -0.058000
     27 F23        -15.1350   -36.7110    20.0890 f          1 N8S      -0.161000
     28 F34        -12.6600   -34.7130    18.1000 f          1 N8S      -0.162000
     29 N16        -14.8500   -37.4040    22.8460 ns         1 N8S      -0.162000
     30 N24        -13.5020   -37.7950    18.1240 nu         1 N8S      -0.936100
     31 N36        -14.8460   -36.6510    25.5260 nb         1 N8S      -0.266000
     32 N38        -14.8200   -35.7090    27.7330 nb         1 N8S      -0.299000
     33 N40        -16.6190   -34.7140    28.6540 nv         1 N8S      -1.068900
     34 N5         -22.2320   -34.1560    25.3200 na         1 N8S       0.137800
     35 N6         -22.4930   -35.0130    24.2800 nc         1 N8S      -0.524800
     36 O15        -16.9450   -37.7140    22.0180 o          1 N8S      -0.593100
     37 O26        -11.7970   -38.8260    16.6330 o          1 N8S      -0.526000
     38 O27        -13.0560   -36.6840    15.9990 o          1 N8S      -0.526000
     39 S25        -12.3300   -37.5030    16.9690 sy         1 N8S       1.211600
     40 Cl35       -12.6740   -39.1980    23.8870 cl         1 N8S      -0.184000
     41 H1         -20.5580   -33.5990    26.5850 h4         1 N8S       0.151000
     42 H2         -24.0780   -33.9570    26.3140 h1         1 N8S       0.057700
     43 H3         -22.9010   -32.6510    26.6390 h1         1 N8S       0.057700
     44 H4         -23.7500   -32.7150    25.0670 h1         1 N8S       0.057700
     45 H5         -18.7050   -36.3550    23.0760 ha         1 N8S       0.151000
     46 H6         -11.6320   -39.4600    19.1240 ha         1 N8S       0.128000
     47 H7         -22.2510   -37.0410    22.7560 hc         1 N8S       0.054033
     48 H8         -20.7850   -36.3050    22.1020 hc         1 N8S       0.054033
     49 H9         -20.6820   -37.5350    23.3880 hc         1 N8S       0.054033
     50 H10        -11.2960   -39.9960    21.5120 ha         1 N8S       0.134000
     51 H11         -9.5390   -38.0340    17.6860 ha         1 N8S       0.145000
     52 H12         -7.8520   -36.6630    18.8760 ha         1 N8S       0.126000
     53 H13         -8.4270   -34.3780    19.6880 ha         1 N8S       0.122000
     54 H14        -10.7190   -33.4680    19.3040 ha         1 N8S       0.138000
     55 H15        -13.2180   -36.6580    26.8180 h5         1 N8S       0.047100
     56 H16        -18.6690   -34.7050    27.0350 ha         1 N8S       0.105000
     57 H17        -14.3570   -37.0800    23.6680 hn         1 N8S       0.220000
     58 H18        -14.2030   -37.0890    17.9370 hn         1 N8S       0.533000
     59 H19        -16.0850   -34.7490    29.5200 hn         1 N8S       0.504000
     60 H20        -17.6280   -34.6690    28.7550 hn         1 N8S       0.504000
@<TRIPOS>BOND
     1     1    19 2   
     2     1    34 1   
     3     1    41 1   
     4     2    34 1   
     5     2    42 1   
     6     2    43 1   
     7     2    44 1   
     8     3     5 ar  
     9     3    19 1   
    10     3    26 ar  
    11     4    12 ar  
    12     4    25 ar  
    13     4    26 ar  
    14     5    13 ar  
    15     5    45 1   
    16     6     9 ar  
    17     6    15 ar  
    18     6    29 1   
    19     7     8 ar  
    20     7    16 ar  
    21     7    46 1   
    22     8     9 ar  
    23     8    30 1   
    24     9    27 1   
    25    10    18 ar  
    26    10    23 ar  
    27    10    39 1   
    28    11    17 1   
    29    11    47 1   
    30    11    48 1   
    31    11    49 1   
    32    12    13 ar  
    33    12    31 ar  
    34    13    14 1   
    35    14    29 1   
    36    14    36 2   
    37    15    16 ar  
    38    15    40 1   
    39    16    50 1   
    40    17    19 1   
    41    17    35 2   
    42    18    20 ar  
    43    18    51 1   
    44    20    21 ar  
    45    20    52 1   
    46    21    22 ar  
    47    21    53 1   
    48    22    23 ar  
    49    22    54 1   
    50    23    28 1   
    51    24    31 ar  
    52    24    32 ar  
    53    24    55 1   
    54    25    32 ar  
    55    25    33 1   
    56    26    56 1   
    57    29    57 1   
    58    30    39 1   
    59    30    58 1   
    60    33    59 1   
    61    33    60 1   
    62    34    35 1   
    63    37    39 2   
    64    38    39 2   
@<TRIPOS>SUBSTRUCTURE
     1 N8S         1 TEMP              0 ****  ****    0 ROOT
