@<TRIPOS>MOLECULE
N8S
   60    64     1     0     0
SMALL
bcc


@<TRIPOS>ATOM
      1 C4         -21.3190   -34.4140    25.6400 cc         1 N8S      -0.123300
      2 C7         -23.7410   -33.8240    25.5260 c3         1 N8S       0.044600
      3 C8         -19.1080   -35.6110    25.2670 ca         1 N8S      -0.003000
      4 C10        -17.1430   -35.5800    26.6810 ca         1 N8S      -0.317600
      5 C13        -18.2870   -36.0350    24.2080 ca         1 N8S      -0.030000
      6 C17        -14.0510   -37.2690    22.1860 ca         1 N8S       0.067600
      7 C20        -12.3440   -38.1570    20.1590 ca         1 N8S      -0.154000
      8 C21        -13.1260   -37.0270    19.9390 ca         1 N8S       0.162600
      9 C22        -13.9570   -36.6060    20.9730 ca         1 N8S       0.102900
     10 C28        -10.7660   -36.5860    17.4450 ca         1 N8S      -0.342500
     11 C1         -21.1910   -37.3790    23.4810 c3         1 N8S      -0.127400
     12 C11        -16.3270   -36.0070    25.6130 ca         1 N8S       0.480600
     13 C12        -16.9320   -36.2380    24.3460 ca         1 N8S      -0.213900
     14 C14        -16.2080   -36.6960    23.1100 c          1 N8S       0.693700
     15 C18        -13.2700   -38.4100    22.3590 ca         1 N8S      -0.004600
     16 C19        -12.4180   -38.8430    21.3600 ca         1 N8S      -0.092000
     17 C2         -21.4530   -36.1600    24.2980 cd         1 N8S       0.349600
     18 C29         -9.9600   -37.6920    17.2020 ca         1 N8S      -0.005000
     19 C3         -20.5400   -35.4020    25.0700 cd         1 N8S      -0.236300
     20 C30         -8.5820   -37.5710    17.2820 ca         1 N8S      -0.166000
     21 C31         -8.0110   -36.3460    17.6000 ca         1 N8S      -0.047000
     22 C32         -8.8070   -35.2350    17.8420 ca         1 N8S      -0.189000
     23 C33        -10.1760   -35.3680    17.7550 ca         1 N8S       0.233900
     24 C37        -14.5110   -35.9770    26.9830 ca         1 N8S       0.727900
     25 C39        -16.4760   -35.3770    27.9450 ca         1 N8S       0.750200
     26 C9         -18.5180   -35.3910    26.4950 ca         1 N8S      -0.076000
     27 F23        -14.6710   -35.4920    20.7930 f          1 N8S      -0.125900
     28 F34        -10.9480   -34.3060    17.9880 f          1 N8S      -0.126900
     29 N16        -14.8630   -36.7870    23.2120 ns         1 N8S      -0.488100
     30 N24        -13.1060   -36.2650    18.7710 nu         1 N8S      -0.742500
     31 N36        -14.9940   -36.2000    25.7910 nb         1 N8S      -0.792000
     32 N38        -15.1720   -35.5800    28.0660 nb         1 N8S      -0.825000
     33 N40        -17.1350   -34.9850    29.0300 nv         1 N8S      -0.958500
     34 N5         -22.5720   -34.6100    25.2130 na         1 N8S       0.116400
     35 N6         -22.6730   -35.6640    24.4060 nc         1 N8S      -0.524800
     36 O15        -16.8150   -36.9640    22.0880 o          1 N8S      -0.593100
     37 O26        -12.8250   -38.1290    17.0930 o          1 N8S      -0.596800
     38 O27        -13.0050   -35.7300    16.3670 o          1 N8S      -0.596800
     39 S25        -12.5250   -36.7270    17.3000 sy         1 N8S       1.353200
     40 CL35       -13.3750   -39.2800    23.8450 cl         1 N8S      -0.092400
     41 H1         -21.0600   -33.5980    26.2960 h4         1 N8S       0.169000
     42 H2         -24.4990   -34.4450    25.9990 h1         1 N8S       0.057700
     43 H3         -23.4580   -33.0290    26.2100 h1         1 N8S       0.057700
     44 H4         -24.1550   -33.3820    24.6220 h1         1 N8S       0.057700
     45 H5         -18.7270   -36.1900    23.2330 ha         1 N8S       0.169000
     46 H6         -11.6610   -38.5230    19.4090 ha         1 N8S       0.146000
     47 H7         -22.1200   -37.9080    23.2760 hc         1 N8S       0.054033
     48 H8         -20.7330   -37.1340    22.5210 hc         1 N8S       0.054033
     49 H9         -20.5150   -38.0630    23.9950 hc         1 N8S       0.054033
     50 H10        -11.8070   -39.7220    21.5080 ha         1 N8S       0.152000
     51 H11        -10.4050   -38.6450    16.9550 ha         1 N8S       0.163000
     52 H12         -7.9570   -38.4330    17.0940 ha         1 N8S       0.144000
     53 H13         -6.9360   -36.2500    17.6650 ha         1 N8S       0.140000
     54 H14         -8.3730   -34.2760    18.0930 ha         1 N8S       0.156000
     55 H15        -13.4450   -36.1340    27.1100 h5         1 N8S       0.047100
     56 H16        -19.1480   -35.0810    27.3190 ha         1 N8S       0.123000
     57 H17        -14.4730   -36.6510    24.1540 hn         1 N8S       0.386500
     58 H18        -13.5370   -35.3490    18.7840 hn         1 N8S       0.477800
     59 H19        -16.6300   -34.8590    29.8920 hn         1 N8S       0.448800
     60 H20        -18.1230   -34.8090    29.0450 hn         1 N8S       0.448800
@<TRIPOS>BOND
     1     1    19 2   
     2     1    34 1   
     3     1    41 1   
     4     2    34 1   
     5     2    42 1   
     6     2    43 1   
     7     2    44 1   
     8     3     5 ar  
     9     3    19 1   
    10     3    26 ar  
    11     4    12 ar  
    12     4    25 ar  
    13     4    26 ar  
    14     5    13 ar  
    15     5    45 1   
    16     6     9 ar  
    17     6    15 ar  
    18     6    29 1   
    19     7     8 ar  
    20     7    16 ar  
    21     7    46 1   
    22     8     9 ar  
    23     8    30 1   
    24     9    27 1   
    25    10    18 ar  
    26    10    23 ar  
    27    10    39 1   
    28    11    17 1   
    29    11    47 1   
    30    11    48 1   
    31    11    49 1   
    32    12    13 ar  
    33    12    31 ar  
    34    13    14 1   
    35    14    29 1   
    36    14    36 2   
    37    15    16 ar  
    38    15    40 1   
    39    16    50 1   
    40    17    19 1   
    41    17    35 2   
    42    18    20 ar  
    43    18    51 1   
    44    20    21 ar  
    45    20    52 1   
    46    21    22 ar  
    47    21    53 1   
    48    22    23 ar  
    49    22    54 1   
    50    23    28 1   
    51    24    31 ar  
    52    24    32 ar  
    53    24    55 1   
    54    25    32 ar  
    55    25    33 1   
    56    26    56 1   
    57    29    57 1   
    58    30    39 1   
    59    30    58 1   
    60    33    59 1   
    61    33    60 1   
    62    34    35 1   
    63    37    39 2   
    64    38    39 2   
@<TRIPOS>SUBSTRUCTURE
     1 N8S         1 TEMP              0 ****  ****    0 ROOT
