@<TRIPOS>MOLECULE
N8T
   79    84     1     0     0
SMALL
No Charge or Current Charge


@<TRIPOS>ATOM
      1 CBD          9.9620     2.4160     0.5150 c6         1 N8T      -0.132700
      2 CBE          9.2520     3.7020     0.0380 c6         1 N8T      -0.074400
      3 CAQ          7.7660     3.6640     0.4370 c6         1 N8T      -0.077400
      4 CAP          7.0440     2.4740    -0.2350 c6         1 N8T      -0.017100
      5 CAO          7.8250     1.1440    -0.1610 ca         1 N8T      -0.135300
      6 CBC          9.1970     1.1360     0.1630 ca         1 N8T       0.391300
      7 NBB          9.9470     0.0160     0.1950 nb         1 N8T      -0.688000
      8 CBA          9.3740    -1.1650    -0.1120 ca         1 N8T       0.288000
      9 CAZ         10.1620    -2.3320    -0.0840 ca         1 N8T      -0.084000
     10 CAY          9.6160    -3.5860    -0.3970 ca         1 N8T      -0.103000
     11 CAK          8.2620    -3.6880    -0.7440 ca         1 N8T      -0.111000
     12 CAL          7.4580    -2.5380    -0.7780 ca         1 N8T      -0.098000
     13 CAM          8.0060    -1.2670    -0.4650 ca         1 N8T      -0.115000
     14 CAN          7.2210    -0.0900    -0.4840 ca         1 N8T       0.298000
     15 NAA          5.8650    -0.1450    -0.8420 nu         1 N8T      -0.931200
     16 CAB          4.7760    -0.2030     0.1430 c3         1 N8T       0.188800
     17 CAC          3.4080    -0.1180    -0.5610 c3         1 N8T      -0.081400
     18 CAD          2.2220    -0.1690     0.4270 c3         1 N8T      -0.075400
     19 CAE          0.8480    -0.0820    -0.2730 c3         1 N8T      -0.074400
     20 CAF         -0.3380    -0.1310     0.7150 c3         1 N8T      -0.075400
     21 CAG         -1.7120    -0.0440     0.0150 c3         1 N8T      -0.073400
     22 CAH         -2.8970    -0.0940     1.0040 c3         1 N8T      -0.068400
     23 CAI         -4.2650    -0.0070     0.3010 c3         1 N8T       0.064600
     24 SAJ         -5.6320    -0.0730     1.5380 ss         1 N8T      -0.234000
     25 CAU         -7.0950     0.0480     0.5020 ca         1 N8T      -0.077000
     26 CAV         -7.8150    -1.1180     0.1580 ca         1 N8T      -0.068300
     27 CAW         -7.3700    -2.5030     0.6660 c6         1 N8T      -0.036100
     28 CAX         -8.4230    -3.6170     0.4580 c6         1 N8T      -0.075400
     29 CBL         -9.0370    -3.5390    -0.9530 c6         1 N8T      -0.075400
     30 CBK         -9.7680    -2.1920    -1.1420 c6         1 N8T      -0.132700
     31 CBJ         -8.9350    -0.9860    -0.6980 ca         1 N8T       0.367300
     32 NBI         -9.3620     0.1990    -1.1840 nb         1 N8T      -0.662000
     33 CBH         -8.6870     1.3210    -0.8500 ca         1 N8T       0.265000
     34 CAT         -7.5420     1.2930    -0.0070 ca         1 N8T      -0.051000
     35 CAS         -6.8780     2.5030     0.3060 ca         1 N8T      -0.092000
     36 CAR         -7.3380     3.7240    -0.2110 ca         1 N8T      -0.106000
     37 CBF         -8.4650     3.7530    -1.0430 ca         1 N8T      -0.105000
     38 CBG         -9.1310     2.5570    -1.3570 ca         1 N8T      -0.082000
     39 HBD1        10.9740     2.3820     0.0880 hc         1 N8T       0.062200
     40 HBD2        10.0910     2.4560     1.6050 hc         1 N8T       0.062200
     41 HBE1         9.3420     3.7970    -1.0530 hc         1 N8T       0.045700
     42 HBE2         9.7410     4.5850     0.4730 hc         1 N8T       0.045700
     43 HAQ1         7.2740     4.6050     0.1550 hc         1 N8T       0.041200
     44 HAQ2         7.6790     3.5810     1.5290 hc         1 N8T       0.041200
     45 HAP1         6.8660     2.7140    -1.2930 hc         1 N8T       0.053700
     46 HAP2         6.0520     2.3720     0.2210 hc         1 N8T       0.053700
     47 HAZ         11.2130    -2.2580     0.1850 ha         1 N8T       0.130000
     48 HAY         10.2410    -4.4760    -0.3700 ha         1 N8T       0.116000
     49 HAK          7.8330    -4.6580    -0.9850 ha         1 N8T       0.113000
     50 HAL          6.4100    -2.6500    -1.0430 ha         1 N8T       0.105000
     51 HAA          5.7070    -0.7510    -1.6460 hn         1 N8T       0.440000
     52 HAB1         4.8630     0.6220     0.8610 h1         1 N8T       0.037200
     53 HAB2         4.8370    -1.1440     0.7080 h1         1 N8T       0.037200
     54 HAC1         3.3170    -0.9450    -1.2760 hc         1 N8T       0.047200
     55 HAC2         3.3580     0.8150    -1.1360 hc         1 N8T       0.047200
     56 HAD1         2.3150     0.6580     1.1430 hc         1 N8T       0.038200
     57 HAD2         2.2740    -1.1010     1.0040 hc         1 N8T       0.038200
     58 HAE1         0.7550    -0.9080    -0.9890 hc         1 N8T       0.039200
     59 HAE2         0.7960     0.8500    -0.8510 hc         1 N8T       0.039200
     60 HAF1        -0.2860    -1.0630     1.2930 hc         1 N8T       0.039700
     61 HAF2        -0.2450     0.6950     1.4310 hc         1 N8T       0.039700
     62 HAG1        -1.7640     0.8870    -0.5620 hc         1 N8T       0.040200
     63 HAG2        -1.8050    -0.8710    -0.7000 hc         1 N8T       0.040200
     64 HAH1        -2.8500    -1.0260     1.5810 hc         1 N8T       0.052200
     65 HAH2        -2.8090     0.7330     1.7180 hc         1 N8T       0.052200
     66 HAI1        -4.3380     0.9310    -0.2620 h1         1 N8T       0.062200
     67 HAI2        -4.3810    -0.8440    -0.3990 h1         1 N8T       0.062200
     68 HAW1        -6.4430    -2.7850     0.1480 hc         1 N8T       0.061200
     69 HAW2        -7.1230    -2.4570     1.7350 hc         1 N8T       0.061200
     70 HAX1        -7.9610    -4.6010     0.6170 hc         1 N8T       0.046200
     71 HAX2        -9.2180    -3.5190     1.2100 hc         1 N8T       0.046200
     72 HBL1        -8.2450    -3.6450    -1.7090 hc         1 N8T       0.045700
     73 HBL2        -9.7360    -4.3720    -1.1100 hc         1 N8T       0.045700
     74 HBK1       -10.0600    -2.0820    -2.1950 hc         1 N8T       0.063700
     75 HBK2       -10.7020    -2.2020    -0.5640 hc         1 N8T       0.063700
     76 HAS         -6.0050     2.5170     0.9530 ha         1 N8T       0.133000
     77 HAR         -6.8210     4.6490     0.0360 ha         1 N8T       0.115000
     78 HBF         -8.8230     4.6980    -1.4450 ha         1 N8T       0.117000
     79 HBG        -10.0050     2.5860    -2.0030 ha         1 N8T       0.130000
@<TRIPOS>BOND
     1     1     2 1   
     2     1     6 1   
     3     1    39 1   
     4     1    40 1   
     5     2     3 1   
     6     2    41 1   
     7     2    42 1   
     8     3     4 1   
     9     3    43 1   
    10     3    44 1   
    11     4     5 1   
    12     4    45 1   
    13     4    46 1   
    14     5     6 ar  
    15     5    14 ar  
    16     6     7 ar  
    17     7     8 ar  
    18     8     9 ar  
    19     8    13 ar  
    20     9    10 ar  
    21     9    47 1   
    22    10    11 ar  
    23    10    48 1   
    24    11    12 ar  
    25    11    49 1   
    26    12    13 ar  
    27    12    50 1   
    28    13    14 ar  
    29    14    15 1   
    30    15    16 1   
    31    15    51 1   
    32    16    17 1   
    33    16    52 1   
    34    16    53 1   
    35    17    18 1   
    36    17    54 1   
    37    17    55 1   
    38    18    19 1   
    39    18    56 1   
    40    18    57 1   
    41    19    20 1   
    42    19    58 1   
    43    19    59 1   
    44    20    21 1   
    45    20    60 1   
    46    20    61 1   
    47    21    22 1   
    48    21    62 1   
    49    21    63 1   
    50    22    23 1   
    51    22    64 1   
    52    22    65 1   
    53    23    24 1   
    54    23    66 1   
    55    23    67 1   
    56    24    25 1   
    57    25    26 ar  
    58    25    34 ar  
    59    26    27 1   
    60    26    31 ar  
    61    27    28 1   
    62    27    68 1   
    63    27    69 1   
    64    28    29 1   
    65    28    70 1   
    66    28    71 1   
    67    29    30 1   
    68    29    72 1   
    69    29    73 1   
    70    30    31 1   
    71    30    74 1   
    72    30    75 1   
    73    31    32 ar  
    74    32    33 ar  
    75    33    34 ar  
    76    33    38 ar  
    77    34    35 ar  
    78    35    36 ar  
    79    35    76 1   
    80    36    37 ar  
    81    36    77 1   
    82    37    38 ar  
    83    37    78 1   
    84    38    79 1   
@<TRIPOS>SUBSTRUCTURE
     1 N8T         1 TEMP              0 ****  ****    0 ROOT
