@<TRIPOS>MOLECULE
N8T
   79    84     1     0     0
SMALL
abcg2


@<TRIPOS>ATOM
      1 CBD          8.9890     2.7960     0.0730 c6         1 N8T      -0.132700
      2 CBE          8.0690     3.6690    -0.7640 c6         1 N8T      -0.074400
      3 CAQ          6.6230     3.3380    -0.4340 c6         1 N8T      -0.077400
      4 CAP          6.3000     1.8940    -0.7930 c6         1 N8T      -0.017100
      5 CAO          7.3510     0.9010    -0.3570 ca         1 N8T      -0.135300
      6 CBC          8.6590     1.3290    -0.0090 ca         1 N8T       0.391300
      7 NBB          9.6480     0.5070     0.2510 nb         1 N8T      -0.688000
      8 CBA          9.4280    -0.8220     0.1970 ca         1 N8T       0.288000
      9 CAZ         10.5060    -1.6930     0.4810 ca         1 N8T      -0.084000
     10 CAY         10.3320    -3.0500     0.4600 ca         1 N8T      -0.103000
     11 CAK          9.0700    -3.5970     0.1570 ca         1 N8T      -0.111000
     12 CAL          8.0110    -2.7770    -0.1270 ca         1 N8T      -0.098000
     13 CAM          8.1630    -1.3700    -0.1250 ca         1 N8T      -0.115000
     14 CAN          7.1040    -0.4610    -0.4150 ca         1 N8T       0.298000
     15 NAA          5.8450    -0.9230    -0.7930 nu         1 N8T      -0.931200
     16 CAB          4.7470    -0.8170     0.1690 c3         1 N8T       0.188800
     17 CAC          3.4040    -0.6990    -0.5320 c3         1 N8T      -0.081400
     18 CAD          2.2400    -0.6430     0.4490 c3         1 N8T      -0.075400
     19 CAE          0.8900    -0.4830    -0.2390 c3         1 N8T      -0.074400
     20 CAF         -0.2760    -0.4410     0.7420 c3         1 N8T      -0.075400
     21 CAG         -1.6260    -0.2600     0.0590 c3         1 N8T      -0.073400
     22 CAH         -2.7810    -0.2250     1.0540 c3         1 N8T      -0.068400
     23 CAI         -4.1200    -0.0310     0.3590 c3         1 N8T       0.064600
     24 SAJ         -5.4420     0.0090     1.6170 ss         1 N8T      -0.234000
     25 CAU         -6.8660     0.2450     0.5810 ca         1 N8T      -0.077000
     26 CAV         -7.4840    -0.8330    -0.0160 ca         1 N8T      -0.068300
     27 CAW         -6.9580    -2.2370     0.1350 c6         1 N8T      -0.036100
     28 CAX         -7.9450    -3.3170    -0.2840 c6         1 N8T      -0.075400
     29 CBL         -8.5600    -2.9730    -1.6300 c6         1 N8T      -0.075400
     30 CBK         -9.3740    -1.6970    -1.5000 c6         1 N8T      -0.132700
     31 CBJ         -8.6300    -0.5730    -0.8270 ca         1 N8T       0.367300
     32 NBI         -9.1140     0.6260    -1.0150 nb         1 N8T      -0.662000
     33 CBH         -8.5220     1.6890    -0.4320 ca         1 N8T       0.265000
     34 CAT         -7.3750     1.5590     0.3880 ca         1 N8T      -0.051000
     35 CAS         -6.8050     2.7260     0.9470 ca         1 N8T      -0.092000
     36 CAR         -7.3550     3.9560     0.7050 ca         1 N8T      -0.106000
     37 CBF         -8.5020     4.0820    -0.1060 ca         1 N8T      -0.105000
     38 CBG         -9.0720     2.9710    -0.6640 ca         1 N8T      -0.082000
     39 HBD1        10.0350     2.9330    -0.2070 hc         1 N8T       0.062200
     40 HBD2         8.9140     3.1030     1.1230 hc         1 N8T       0.062200
     41 HBE1         8.2550     3.5010    -1.8300 hc         1 N8T       0.045700
     42 HBE2         8.2810     4.7220    -0.5710 hc         1 N8T       0.045700
     43 HAQ1         5.9370     4.0010    -0.9660 hc         1 N8T       0.041200
     44 HAQ2         6.4520     3.5030     0.6340 hc         1 N8T       0.041200
     45 HAP1         6.1920     1.8030    -1.8800 hc         1 N8T       0.053700
     46 HAP2         5.3210     1.6420    -0.3880 hc         1 N8T       0.053700
     47 HAZ         11.4680    -1.2560     0.7200 ha         1 N8T       0.130000
     48 HAY         11.1630    -3.7070     0.6810 ha         1 N8T       0.116000
     49 HAK          8.9360    -4.6710     0.1560 ha         1 N8T       0.113000
     50 HAL          7.0510    -3.2260    -0.3470 ha         1 N8T       0.105000
     51 HAA          5.8790    -1.8570    -1.1730 hn         1 N8T       0.440000
     52 HAB1         4.9110     0.0550     0.8040 h1         1 N8T       0.037200
     53 HAB2         4.7430    -1.6810     0.8450 h1         1 N8T       0.037200
     54 HAC1         3.2720    -1.5500    -1.2080 hc         1 N8T       0.047200
     55 HAC2         3.4080     0.1960    -1.1610 hc         1 N8T       0.047200
     56 HAD1         2.3900     0.1890     1.1450 hc         1 N8T       0.038200
     57 HAD2         2.2330    -1.5520     1.0600 hc         1 N8T       0.038200
     58 HAE1         0.7420    -1.3070    -0.9450 hc         1 N8T       0.039200
     59 HAE2         0.8940     0.4330    -0.8380 hc         1 N8T       0.039200
     60 HAF1        -0.2860    -1.3640     1.3320 hc         1 N8T       0.039700
     61 HAF2        -0.1200     0.3740     1.4560 hc         1 N8T       0.039700
     62 HAG1        -1.6190     0.6660    -0.5240 hc         1 N8T       0.040200
     63 HAG2        -1.7850    -1.0730    -0.6570 hc         1 N8T       0.040200
     64 HAH1        -2.7980    -1.1550     1.6290 hc         1 N8T       0.052200
     65 HAH2        -2.6210     0.5850     1.7710 hc         1 N8T       0.052200
     66 HAI1        -4.1390     0.9080    -0.1960 h1         1 N8T       0.062200
     67 HAI2        -4.3110    -0.8460    -0.3410 h1         1 N8T       0.062200
     68 HAW1        -6.0570    -2.3300    -0.4800 hc         1 N8T       0.061200
     69 HAW2        -6.6290    -2.3940     1.1630 hc         1 N8T       0.061200
     70 HAX1        -7.4280    -4.2770    -0.3210 hc         1 N8T       0.046200
     71 HAX2        -8.7360    -3.4150     0.4670 hc         1 N8T       0.046200
     72 HBL1        -7.7670    -2.8410    -2.3730 hc         1 N8T       0.045700
     73 HBL2        -9.1980    -3.7820    -1.9910 hc         1 N8T       0.045700
     74 HBK1        -9.7280    -1.3450    -2.4710 hc         1 N8T       0.063700
     75 HBK2       -10.2730    -1.9070    -0.9090 hc         1 N8T       0.063700
     76 HAS         -5.9270     2.6370     1.5720 ha         1 N8T       0.133000
     77 HAR         -6.9080     4.8400     1.1380 ha         1 N8T       0.115000
     78 HBF         -8.9270     5.0600    -0.2860 ha         1 N8T       0.117000
     79 HBG         -9.9520     3.0450    -1.2910 ha         1 N8T       0.130000
@<TRIPOS>BOND
     1     1     2 1   
     2     1     6 1   
     3     1    39 1   
     4     1    40 1   
     5     2     3 1   
     6     2    41 1   
     7     2    42 1   
     8     3     4 1   
     9     3    43 1   
    10     3    44 1   
    11     4     5 1   
    12     4    45 1   
    13     4    46 1   
    14     5     6 ar  
    15     5    14 ar  
    16     6     7 ar  
    17     7     8 ar  
    18     8     9 ar  
    19     8    13 ar  
    20     9    10 ar  
    21     9    47 1   
    22    10    11 ar  
    23    10    48 1   
    24    11    12 ar  
    25    11    49 1   
    26    12    13 ar  
    27    12    50 1   
    28    13    14 ar  
    29    14    15 1   
    30    15    16 1   
    31    15    51 1   
    32    16    17 1   
    33    16    52 1   
    34    16    53 1   
    35    17    18 1   
    36    17    54 1   
    37    17    55 1   
    38    18    19 1   
    39    18    56 1   
    40    18    57 1   
    41    19    20 1   
    42    19    58 1   
    43    19    59 1   
    44    20    21 1   
    45    20    60 1   
    46    20    61 1   
    47    21    22 1   
    48    21    62 1   
    49    21    63 1   
    50    22    23 1   
    51    22    64 1   
    52    22    65 1   
    53    23    24 1   
    54    23    66 1   
    55    23    67 1   
    56    24    25 1   
    57    25    26 ar  
    58    25    34 ar  
    59    26    27 1   
    60    26    31 ar  
    61    27    28 1   
    62    27    68 1   
    63    27    69 1   
    64    28    29 1   
    65    28    70 1   
    66    28    71 1   
    67    29    30 1   
    68    29    72 1   
    69    29    73 1   
    70    30    31 1   
    71    30    74 1   
    72    30    75 1   
    73    31    32 ar  
    74    32    33 ar  
    75    33    34 ar  
    76    33    38 ar  
    77    34    35 ar  
    78    35    36 ar  
    79    35    76 1   
    80    36    37 ar  
    81    36    77 1   
    82    37    38 ar  
    83    37    78 1   
    84    38    79 1   
@<TRIPOS>SUBSTRUCTURE
     1 N8T         1 TEMP              0 ****  ****    0 ROOT
