@<TRIPOS>MOLECULE
N8U
   26    27     1     0     0
SMALL
No Charge or Current Charge


@<TRIPOS>ATOM
      1 C1           4.4610     6.5760    42.5870 c3         1 N8U      -0.059100
      2 C2           5.9200     7.0260    42.8340 c3         1 N8U      -0.345400
      3 C7           8.8040     7.7450    44.3810 ca         1 N8U       0.193000
      4 C8           8.7050     6.4480    44.9640 ca         1 N8U      -0.046000
      5 C10         11.0670     6.1290    44.6430 ca         1 N8U      -0.030200
      6 C14         12.5660     7.5250    43.7560 cc         1 N8U       0.358800
      7 C15         11.1730     7.3630    44.0920 ca         1 N8U      -0.225900
      8 C16         10.0660     8.2100    43.9420 ca         1 N8U      -0.062000
      9 S3           6.0750     8.2340    44.1610 s6         1 N8U       1.191100
     10 O4           5.7310     7.6100    45.4410 o          1 N8U      -0.531000
     11 O5           5.4340     9.4830    43.7470 o          1 N8U      -0.531000
     12 N6           7.6990     8.5930    44.2300 nu         1 N8U      -0.866100
     13 C9           9.8450     5.6230    45.0980 ca         1 N8U      -0.118000
     14 N11         12.3280     5.5730    44.6400 na         1 N8U      -0.070400
     15 N13         13.2840     6.4380    44.0860 nd         1 N8U      -0.505100
     16 H1           4.4200     5.8440    41.7710 hc         1 N8U       0.052033
     17 H17          4.0360     6.1080    43.4840 hc         1 N8U       0.052033
     18 H18          3.8280     7.4290    42.3100 hc         1 N8U       0.052033
     19 H19          6.5420     6.1700    43.1140 h1         1 N8U       0.089200
     20 H25          6.3350     7.4980    41.9370 h1         1 N8U       0.089200
     21 H21          7.7530     6.0730    45.3220 ha         1 N8U       0.148000
     22 H23         13.0920     8.3530    43.3000 h4         1 N8U       0.052800
     23 H24         10.1780     9.1970    43.4990 ha         1 N8U       0.118000
     24 H20          7.8170     9.4490    43.7040 hn         1 N8U       0.481000
     25 H22          9.7730     4.6330    45.5430 ha         1 N8U       0.131000
     26 H12         12.5800     4.6480    44.9890 hn         1 N8U       0.381000
@<TRIPOS>BOND
     1     1     2 1   
     2     1    16 1   
     3     1    17 1   
     4     1    18 1   
     5     2     9 1   
     6     2    19 1   
     7     2    20 1   
     8     3     4 ar  
     9     3     8 ar  
    10     3    12 1   
    11     4    13 ar  
    12     4    21 1   
    13     5     7 ar  
    14     5    13 ar  
    15     5    14 1   
    16     6     7 1   
    17     6    15 2   
    18     6    22 1   
    19     7     8 ar  
    20     8    23 1   
    21     9    10 2   
    22     9    11 2   
    23     9    12 1   
    24    12    24 1   
    25    13    25 1   
    26    14    15 1   
    27    14    26 1   
@<TRIPOS>SUBSTRUCTURE
     1 N8U         1 TEMP              0 ****  ****    0 ROOT
