@<TRIPOS>MOLECULE
N8U
   26    27     1     0     0
SMALL
abcg2


@<TRIPOS>ATOM
      1 C1           4.9490     6.7980    42.0590 c3         1 N8U      -0.059100
      2 C2           6.2290     7.4160    42.6060 c3         1 N8U      -0.345400
      3 C7           8.7040     7.7240    44.7550 ca         1 N8U       0.193000
      4 C8           8.8730     6.7630    45.7790 ca         1 N8U      -0.046000
      5 C10         10.9690     6.1570    44.8520 ca         1 N8U      -0.030200
      6 C14         12.0150     7.0120    43.0610 cc         1 N8U       0.358800
      7 C15         10.8240     7.1280    43.8330 ca         1 N8U      -0.225900
      8 C16          9.6630     7.9120    43.7790 ca         1 N8U      -0.062000
      9 S3           6.0610     7.8930    44.3220 s6         1 N8U       1.191100
     10 O4           5.8430     6.7030    45.1120 o          1 N8U      -0.531000
     11 O5           5.1120     8.9790    44.4210 o          1 N8U      -0.531000
     12 N6           7.5240     8.5380    44.7690 nu         1 N8U      -0.866100
     13 C9           9.9930     5.9630    45.8360 ca         1 N8U      -0.118000
     14 N11         12.1710     5.5600    44.6310 na         1 N8U      -0.070400
     15 N13         12.8060     6.0740    43.5510 nd         1 N8U      -0.505100
     16 H1           5.1050     6.5320    41.0130 hc         1 N8U       0.052033
     17 H17          4.6830     5.8950    42.6070 hc         1 N8U       0.052033
     18 H18          4.1180     7.5020    42.1130 hc         1 N8U       0.052033
     19 H19          7.0670     6.7180    42.5750 h1         1 N8U       0.089200
     20 H25          6.5100     8.3270    42.0760 h1         1 N8U       0.089200
     21 H21          8.0990     6.6670    46.5260 ha         1 N8U       0.148000
     22 H23         12.3080     7.5690    42.1850 h4         1 N8U       0.052800
     23 H24          9.5160     8.6480    42.9990 ha         1 N8U       0.118000
     24 H20          7.6470     9.4460    44.3310 hn         1 N8U       0.481000
     25 H22         10.1170     5.2280    46.6200 ha         1 N8U       0.131000
     26 H12         12.6070     4.8260    45.1660 hn         1 N8U       0.381000
@<TRIPOS>BOND
     1     1     2 1   
     2     1    16 1   
     3     1    17 1   
     4     1    18 1   
     5     2     9 1   
     6     2    19 1   
     7     2    20 1   
     8     3     4 ar  
     9     3     8 ar  
    10     3    12 1   
    11     4    13 ar  
    12     4    21 1   
    13     5     7 ar  
    14     5    13 ar  
    15     5    14 1   
    16     6     7 1   
    17     6    15 2   
    18     6    22 1   
    19     7     8 ar  
    20     8    23 1   
    21     9    10 2   
    22     9    11 2   
    23     9    12 1   
    24    12    24 1   
    25    13    25 1   
    26    14    15 1   
    27    14    26 1   
@<TRIPOS>SUBSTRUCTURE
     1 N8U         1 TEMP              0 ****  ****    0 ROOT
