@<TRIPOS>MOLECULE
N8V
   49    49     1     0     0
SMALL
No Charge or Current Charge


@<TRIPOS>ATOM
      1 O2          -4.7280    -8.6570     4.6800 oh         1 N8V      -0.712000
      2 C2          -4.0930    -7.8580     5.7030 c6         1 N8V       0.185300
      3 C3          -2.8150    -8.5940     6.2000 c6         1 N8V       0.140300
      4 O3          -1.9590    -8.9200     5.0870 oh         1 N8V      -0.657000
      5 C4          -2.0380    -7.7020     7.2130 c6         1 N8V       0.183500
      6 O4          -1.4270    -6.6000     6.5180 oh         1 N8V      -0.707000
      7 C1          -5.0570    -7.5610     6.9070 c6         1 N8V       0.206700
      8 C7          -4.3000    -7.0910     8.1470 c2         1 N8V      -0.210200
      9 C5          -2.9610    -7.1650     8.3050 c2         1 N8V      -0.152400
     10 C6          -2.2720    -6.7870     9.6040 c3         1 N8V       0.200800
     11 O6          -2.3350    -7.8880    10.5150 oh         1 N8V      -0.667000
     12 N8          -6.0950    -6.5560     6.5590 n7         1 N8V      -0.851400
     13 C9          -7.2850    -6.4530     7.4250 c3         1 N8V       0.162800
     14 C10         -8.2970    -5.4570     6.8190 c3         1 N8V      -0.076400
     15 C11         -9.5510    -5.2160     7.6930 c3         1 N8V      -0.072400
     16 C12        -10.4540    -6.4590     7.8710 c3         1 N8V      -0.076400
     17 C13        -11.7330    -6.1630     8.6850 c3         1 N8V      -0.075400
     18 C14        -12.6350    -7.4040     8.8650 c3         1 N8V      -0.075400
     19 C15        -13.9140    -7.1080     9.6790 c3         1 N8V      -0.075400
     20 C16        -14.8140    -8.3450     9.8590 c3         1 N8V      -0.088100
     21 H1          -3.9730    -9.0920     4.2160 ho         1 N8V       0.517000
     22 H2          -3.7790    -6.8930     5.2780 h1         1 N8V       0.067700
     23 H3          -3.1240    -9.5150     6.7170 h1         1 N8V       0.049700
     24 H4          -1.3460    -8.1490     5.0270 ho         1 N8V       0.447000
     25 H5          -1.2610    -8.3240     7.6830 h1         1 N8V       0.050700
     26 H6          -1.0200    -6.0220     7.2020 ho         1 N8V       0.497000
     27 H7          -5.5560    -8.5110     7.1590 h1         1 N8V       0.082700
     28 H8          -4.9150    -6.7370     8.9730 ha         1 N8V       0.177000
     29 H9          -1.2260    -6.5130     9.4130 h1         1 N8V       0.029700
     30 H10         -2.7660    -5.9070    10.0370 h1         1 N8V       0.029700
     31 H11         -1.9080    -7.5910    11.3480 ho         1 N8V       0.443000
     32 H12         -5.6500    -5.6340     6.4920 hn         1 N8V       0.409000
     33 H13         -7.7610    -7.4380     7.5250 h1         1 N8V       0.028700
     34 H14         -7.0080    -6.1090     8.4300 h1         1 N8V       0.028700
     35 H15         -7.7960    -4.4930     6.6640 hc         1 N8V       0.047700
     36 H16         -8.6090    -5.8120     5.8300 hc         1 N8V       0.047700
     37 H17         -9.2380    -4.8500     8.6790 hc         1 N8V       0.037200
     38 H18        -10.1420    -4.4130     7.2350 hc         1 N8V       0.037200
     39 H19        -10.7370    -6.8430     6.8820 hc         1 N8V       0.039200
     40 H20         -9.8910    -7.2540     8.3750 hc         1 N8V       0.039200
     41 H21        -11.4490    -5.7770     9.6720 hc         1 N8V       0.035700
     42 H22        -12.3040    -5.3720     8.1830 hc         1 N8V       0.035700
     43 H23        -12.9180    -7.7900     7.8780 hc         1 N8V       0.037700
     44 H24        -12.0640    -8.1950     9.3670 hc         1 N8V       0.037700
     45 H25        -13.6350    -6.7230    10.6680 hc         1 N8V       0.036200
     46 H26        -14.4890    -6.3180     9.1780 hc         1 N8V       0.036200
     47 H27        -15.7070    -8.0860    10.4410 hc         1 N8V       0.031700
     48 H28        -15.1400    -8.7330     8.8860 hc         1 N8V       0.031700
     49 H29        -14.2780    -9.1410    10.3890 hc         1 N8V       0.031700
@<TRIPOS>BOND
     1     1     2 1   
     2     1    21 1   
     3     2     3 1   
     4     2     7 1   
     5     2    22 1   
     6     3     4 1   
     7     3     5 1   
     8     3    23 1   
     9     4    24 1   
    10     5     6 1   
    11     5     9 1   
    12     5    25 1   
    13     6    26 1   
    14     7     8 1   
    15     7    12 1   
    16     7    27 1   
    17     8     9 2   
    18     8    28 1   
    19     9    10 1   
    20    10    11 1   
    21    10    29 1   
    22    10    30 1   
    23    11    31 1   
    24    12    13 1   
    25    12    32 1   
    26    13    14 1   
    27    13    33 1   
    28    13    34 1   
    29    14    15 1   
    30    14    35 1   
    31    14    36 1   
    32    15    16 1   
    33    15    37 1   
    34    15    38 1   
    35    16    17 1   
    36    16    39 1   
    37    16    40 1   
    38    17    18 1   
    39    17    41 1   
    40    17    42 1   
    41    18    19 1   
    42    18    43 1   
    43    18    44 1   
    44    19    20 1   
    45    19    45 1   
    46    19    46 1   
    47    20    47 1   
    48    20    48 1   
    49    20    49 1   
@<TRIPOS>SUBSTRUCTURE
     1 N8V         1 TEMP              0 ****  ****    0 ROOT
