@<TRIPOS>MOLECULE
N8V
   49    49     1     0     0
SMALL
abcg2


@<TRIPOS>ATOM
      1 O2          -4.7610    -8.5070     4.7410 oh         1 N8V      -0.712000
      2 C2          -4.1190    -7.7380     5.7560 c6         1 N8V       0.185300
      3 C3          -2.8800    -8.4600     6.2670 c6         1 N8V       0.140300
      4 O3          -2.0760    -8.7690     5.1290 oh         1 N8V      -0.657000
      5 C4          -2.1440    -7.6160     7.3030 c6         1 N8V       0.183500
      6 O4          -1.5640    -6.4760     6.6440 oh         1 N8V      -0.707000
      7 C1          -5.1110    -7.5010     6.8900 c6         1 N8V       0.206700
      8 C7          -4.4150    -7.1430     8.1800 c2         1 N8V      -0.210200
      9 C5          -3.1000    -7.1800     8.3890 c2         1 N8V      -0.152400
     10 C6          -2.4990    -6.7500     9.6930 c3         1 N8V       0.200800
     11 O6          -1.8720    -7.8840    10.3130 oh         1 N8V      -0.667000
     12 N8          -6.1090    -6.5040     6.4810 n7         1 N8V      -0.851400
     13 C9          -7.3170    -6.4660     7.3030 c3         1 N8V       0.162800
     14 C10         -8.3050    -5.4400     6.7580 c3         1 N8V      -0.076400
     15 C11         -9.5270    -5.2230     7.6510 c3         1 N8V      -0.072400
     16 C12        -10.4030    -6.4620     7.8410 c3         1 N8V      -0.076400
     17 C13        -11.6710    -6.1750     8.6420 c3         1 N8V      -0.075400
     18 C14        -12.5370    -7.4100     8.8780 c3         1 N8V      -0.075400
     19 C15        -13.8150    -7.1150     9.6590 c3         1 N8V      -0.075400
     20 C16        -14.6650    -8.3590     9.9080 c3         1 N8V      -0.088100
     21 H1          -4.0590    -8.8220     4.1540 ho         1 N8V       0.517000
     22 H2          -3.8120    -6.7680     5.3450 h1         1 N8V       0.067700
     23 H3          -3.1960    -9.3870     6.7580 h1         1 N8V       0.049700
     24 H4          -1.4520    -9.4650     5.3680 ho         1 N8V       0.447000
     25 H5          -1.3420    -8.2200     7.7400 h1         1 N8V       0.050700
     26 H6          -0.9030    -6.0910     7.2310 ho         1 N8V       0.497000
     27 H7          -5.6530    -8.4420     7.0400 h1         1 N8V       0.082700
     28 H8          -5.0630    -6.8110     8.9850 ha         1 N8V       0.177000
     29 H9          -1.7520    -5.9660     9.5230 h1         1 N8V       0.029700
     30 H10         -3.2770    -6.3400    10.3440 h1         1 N8V       0.029700
     31 H11         -1.2460    -7.5610    10.9730 ho         1 N8V       0.443000
     32 H12         -5.6740    -5.5860     6.4790 hn         1 N8V       0.409000
     33 H13         -7.7580    -7.4660     7.2850 h1         1 N8V       0.028700
     34 H14         -7.1120    -6.2310     8.3590 h1         1 N8V       0.028700
     35 H15         -7.7800    -4.4860     6.6380 hc         1 N8V       0.047700
     36 H16         -8.6250    -5.7500     5.7580 hc         1 N8V       0.047700
     37 H17         -9.1970    -4.8640     8.6330 hc         1 N8V       0.037200
     38 H18        -10.1370    -4.4230     7.2200 hc         1 N8V       0.037200
     39 H19        -10.6760    -6.8650     6.8590 hc         1 N8V       0.039200
     40 H20         -9.8320    -7.2460     8.3470 hc         1 N8V       0.039200
     41 H21        -11.3950    -5.7390     9.6090 hc         1 N8V       0.035700
     42 H22        -12.2620    -5.4130     8.1200 hc         1 N8V       0.035700
     43 H23        -12.8000    -7.8580     7.9120 hc         1 N8V       0.037700
     44 H24        -11.9510    -8.1650     9.4150 hc         1 N8V       0.037700
     45 H25        -13.5520    -6.6550    10.6180 hc         1 N8V       0.036200
     46 H26        -14.4050    -6.3720     9.1140 hc         1 N8V       0.036200
     47 H27        -15.5710    -8.1200    10.4690 hc         1 N8V       0.031700
     48 H28        -14.9690    -8.8200     8.9640 hc         1 N8V       0.031700
     49 H29        -14.1070    -9.1070    10.4760 hc         1 N8V       0.031700
@<TRIPOS>BOND
     1     1     2 1   
     2     1    21 1   
     3     2     3 1   
     4     2     7 1   
     5     2    22 1   
     6     3     4 1   
     7     3     5 1   
     8     3    23 1   
     9     4    24 1   
    10     5     6 1   
    11     5     9 1   
    12     5    25 1   
    13     6    26 1   
    14     7     8 1   
    15     7    12 1   
    16     7    27 1   
    17     8     9 2   
    18     8    28 1   
    19     9    10 1   
    20    10    11 1   
    21    10    29 1   
    22    10    30 1   
    23    11    31 1   
    24    12    13 1   
    25    12    32 1   
    26    13    14 1   
    27    13    33 1   
    28    13    34 1   
    29    14    15 1   
    30    14    35 1   
    31    14    36 1   
    32    15    16 1   
    33    15    37 1   
    34    15    38 1   
    35    16    17 1   
    36    16    39 1   
    37    16    40 1   
    38    17    18 1   
    39    17    41 1   
    40    17    42 1   
    41    18    19 1   
    42    18    43 1   
    43    18    44 1   
    44    19    20 1   
    45    19    45 1   
    46    19    46 1   
    47    20    47 1   
    48    20    48 1   
    49    20    49 1   
@<TRIPOS>SUBSTRUCTURE
     1 N8V         1 TEMP              0 ****  ****    0 ROOT
