@<TRIPOS>MOLECULE
N8W
   30    31     1     0     0
SMALL
No Charge or Current Charge


@<TRIPOS>ATOM
      1 C1          -0.1010     0.8890     0.5290 c6         1 N8W       0.099000
      2 C2          -0.9830    -0.2500    -0.0630 c6         1 N8W       0.084700
      3 N2          -2.3990    -0.0730     0.3210 ns         1 N8W      -0.503900
      4 C3          -0.4540    -1.6570     0.3770 c6         1 N8W       0.115300
      5 O3          -1.2580    -2.7040    -0.2020 oh         1 N8W      -0.644000
      6 C4           1.0420    -1.8510    -0.0280 c6         1 N8W       0.120300
      7 O4           1.1640    -1.8720    -1.4600 oh         1 N8W      -0.647000
      8 C5           1.8920    -0.7210     0.6180 c5         1 N8W       0.063700
      9 C6           3.3380    -0.4670     0.1080 c5         1 N8W       0.163600
     10 C7          -3.2660     0.8450    -0.2210 c          1 N8W       0.610100
     11 O7          -2.9190     1.6490    -1.0740 o          1 N8W      -0.589100
     12 C8          -4.6870     0.7830     0.3220 c3         1 N8W      -0.180100
     13 N1           1.3440     0.6120     0.3730 n          1 N8W      -0.419800
     14 C29          2.3310     1.5840     0.3230 c          1 N8W       0.701100
     15 O32          2.1540     2.7920     0.3490 o          1 N8W      -0.521000
     16 O27          3.5450     0.9590     0.3120 os         1 N8W      -0.400100
     17 H1          -0.3540     1.8410     0.0400 h1         1 N8W       0.070200
     18 H2          -0.3210     1.0000     1.6010 h1         1 N8W       0.070200
     19 H3          -0.9150    -0.1900    -1.1590 h1         1 N8W       0.119700
     20 H4          -2.7930    -0.7190     0.9950 hn         1 N8W       0.304500
     21 H5          -0.5200    -1.7140     1.4740 h1         1 N8W       0.033700
     22 H6          -1.1490    -3.5010     0.3630 ho         1 N8W       0.445000
     23 H7           1.3920    -2.8110     0.3790 h1         1 N8W       0.037700
     24 H8           0.3780    -2.3730    -1.7770 ho         1 N8W       0.468000
     25 H9           1.9160    -0.9060     1.7000 h1         1 N8W       0.077700
     26 H10          4.0970    -1.0470     0.6480 h1         1 N8W       0.070200
     27 H11          3.4300    -0.6770    -0.9660 h1         1 N8W       0.070200
     28 H12         -4.6560     0.8810     1.4130 hc         1 N8W       0.060367
     29 H13         -5.3460     1.5310    -0.1340 hc         1 N8W       0.060367
     30 H14         -5.0750    -0.2330     0.1900 hc         1 N8W       0.060367
@<TRIPOS>BOND
     1     1     2 1   
     2     1    13 1   
     3     1    17 1   
     4     1    18 1   
     5     2     3 1   
     6     2     4 1   
     7     2    19 1   
     8     3    10 1   
     9     3    20 1   
    10     4     5 1   
    11     4     6 1   
    12     4    21 1   
    13     5    22 1   
    14     6     7 1   
    15     6     8 1   
    16     6    23 1   
    17     7    24 1   
    18     8     9 1   
    19     8    13 1   
    20     8    25 1   
    21     9    16 1   
    22     9    26 1   
    23     9    27 1   
    24    10    11 2   
    25    10    12 1   
    26    12    28 1   
    27    12    29 1   
    28    12    30 1   
    29    13    14 1   
    30    14    15 2   
    31    14    16 1   
@<TRIPOS>SUBSTRUCTURE
     1 N8W         1 TEMP              0 ****  ****    0 ROOT
