@<TRIPOS>MOLECULE
N8W
   30    31     1     0     0
SMALL
bcc


@<TRIPOS>ATOM
      1 C1           0.0010     0.8830     0.9210 c6         1 N8W       0.099000
      2 C2          -0.9120    -0.0430     0.1100 c6         1 N8W       0.084700
      3 N2          -2.2800     0.1440     0.5220 ns         1 N8W      -0.570900
      4 C3          -0.4830    -1.5020     0.2790 c6         1 N8W       0.092100
      5 O3          -1.2970    -2.2830    -0.5630 oh         1 N8W      -0.581800
      6 C4           0.9970    -1.6830    -0.0800 c6         1 N8W       0.097100
      7 O4           1.2330    -1.3500    -1.4250 oh         1 N8W      -0.584800
      8 C5           1.8530    -0.7690     0.7870 c5         1 N8W       0.063700
      9 C6           3.2990    -0.6010     0.3210 c5         1 N8W       0.140400
     10 C7          -3.2850     0.5020    -0.2990 c          1 N8W       0.677100
     11 O7          -3.1270     0.7600    -1.4840 o          1 N8W      -0.589100
     12 C8          -4.6450     0.5740     0.3510 c3         1 N8W      -0.180100
     13 N1           1.3900     0.5950     0.6700 n          1 N8W      -0.486800
     14 C29          2.1600     1.2920    -0.1990 c          1 N8W       0.843600
     15 O32          1.9370     2.3690    -0.6970 o          1 N8W      -0.596500
     16 O27          3.2930     0.6140    -0.4330 os         1 N8W      -0.376900
     17 H1          -0.2020     1.9240     0.6760 h1         1 N8W       0.070200
     18 H2          -0.1940     0.7540     1.9900 h1         1 N8W       0.070200
     19 H3          -0.8460     0.2290    -0.9450 h1         1 N8W       0.119700
     20 H4          -2.5050    -0.0780     1.4790 hn         1 N8W       0.304500
     21 H5          -0.6140    -1.7880     1.3340 h1         1 N8W       0.033700
     22 H6          -1.2200    -3.2050    -0.2980 ho         1 N8W       0.406000
     23 H7           1.2840    -2.7240     0.1320 h1         1 N8W       0.037700
     24 H8           0.5660    -1.7900    -1.9640 ho         1 N8W       0.429000
     25 H9           1.8080    -1.1110     1.8230 h1         1 N8W       0.077700
     26 H10          3.9770    -0.4900     1.1680 h1         1 N8W       0.070200
     27 H11          3.6540    -1.4130    -0.3100 h1         1 N8W       0.070200
     28 H12         -4.6330     0.3670     1.4200 hc         1 N8W       0.060367
     29 H13         -5.0690     1.5650     0.1940 hc         1 N8W       0.060367
     30 H14         -5.3110    -0.1430    -0.1290 hc         1 N8W       0.060367
@<TRIPOS>BOND
     1     1     2 1   
     2     1    13 1   
     3     1    17 1   
     4     1    18 1   
     5     2     3 1   
     6     2     4 1   
     7     2    19 1   
     8     3    10 1   
     9     3    20 1   
    10     4     5 1   
    11     4     6 1   
    12     4    21 1   
    13     5    22 1   
    14     6     7 1   
    15     6     8 1   
    16     6    23 1   
    17     7    24 1   
    18     8     9 1   
    19     8    13 1   
    20     8    25 1   
    21     9    16 1   
    22     9    26 1   
    23     9    27 1   
    24    10    11 2   
    25    10    12 1   
    26    12    28 1   
    27    12    29 1   
    28    12    30 1   
    29    13    14 1   
    30    14    15 2   
    31    14    16 1   
@<TRIPOS>SUBSTRUCTURE
     1 N8W         1 TEMP              0 ****  ****    0 ROOT
