@<TRIPOS>MOLECULE
N8X
   34    35     1     0     0
SMALL
No Charge or Current Charge


@<TRIPOS>ATOM
      1 N1           8.5640     1.0050    18.0730 nc         1 N8X      -0.369000
      2 N3           6.6730     1.1630    19.1970 na         1 N8X      -0.361000
      3 C4          14.1190    -0.1990    21.9140 c3         1 N8X      -0.046300
      4 C5          11.6550    -0.7920    22.0670 ca         1 N8X      -0.096000
      5 C6          10.4300    -0.8310    22.7610 ca         1 N8X      -0.071300
      6 C7           9.1890    -1.4270    22.1040 c3         1 N8X      -0.106100
      7 C8           8.3480    -0.3310    21.4400 c          1 N8X       0.607100
      8 C10          6.5860     1.9210    18.0530 cd         1 N8X       0.375400
      9 O            7.6090     0.3930    22.0870 o          1 N8X      -0.553100
     10 C3          12.8000    -0.2400    22.6700 ca         1 N8X      -0.069300
     11 C2          12.7140     0.2810    23.9750 ca         1 N8X      -0.102000
     12 C12         10.3580    -0.3090    24.0670 ca         1 N8X      -0.096000
     13 C1          11.4950     0.2510    24.6770 ca         1 N8X      -0.069300
     14 C           11.4090     0.8130    26.0880 c3         1 N8X      -0.046300
     15 C9           7.9540     0.6460    19.1890 cd         1 N8X       0.490400
     16 C11          5.5470     0.8640    20.1010 c3         1 N8X       0.064900
     17 N2           7.7150     1.8290    17.3660 nc         1 N8X      -0.352000
     18 H1          14.2010     0.7210    21.3230 hc         1 N8X       0.042867
     19 H2          14.9750    -0.2340    22.5990 hc         1 N8X       0.042867
     20 H3          14.2130    -1.0490    21.2270 hc         1 N8X       0.042867
     21 H4          11.7190    -1.1910    21.0580 ha         1 N8X       0.109000
     22 H5           8.5770    -1.9240    22.8650 hc         1 N8X       0.068200
     23 H6           9.4980    -2.1650    21.3540 hc         1 N8X       0.068200
     24 H7           5.6920     2.4640    17.7720 h5         1 N8X       0.064100
     25 H8          13.5960     0.7120    24.4440 ha         1 N8X       0.111000
     26 H9           9.4140    -0.3340    24.6070 ha         1 N8X       0.109000
     27 H10         11.6240     0.0360    26.8310 hc         1 N8X       0.042867
     28 H11         12.1250     1.6290    26.2380 hc         1 N8X       0.042867
     29 H12         10.4090     1.2110    26.2990 hc         1 N8X       0.042867
     30 H13          9.3170    -0.7500    19.7350 hn         1 N8X       0.341500
     31 H14          5.6060    -0.1760    20.4460 h1         1 N8X       0.059700
     32 H15          5.5700     1.5420    20.9630 h1         1 N8X       0.059700
     33 H16          4.5970     1.0020    19.5690 h1         1 N8X       0.059700
     34 N            8.5440    -0.2040    20.0860 ns         1 N8X      -0.504400
@<TRIPOS>BOND
     1     1    15 2   
     2     1    17 1   
     3     2     8 1   
     4     2    15 1   
     5     2    16 1   
     6     3    10 1   
     7     3    18 1   
     8     3    19 1   
     9     3    20 1   
    10     4     5 ar  
    11     4    10 ar  
    12     4    21 1   
    13     5     6 1   
    14     5    12 ar  
    15     6     7 1   
    16     6    22 1   
    17     6    23 1   
    18     7     9 2   
    19     7    34 1   
    20     8    17 2   
    21     8    24 1   
    22    10    11 ar  
    23    11    13 ar  
    24    11    25 1   
    25    12    13 ar  
    26    12    26 1   
    27    13    14 1   
    28    14    27 1   
    29    14    28 1   
    30    14    29 1   
    31    15    34 1   
    32    16    31 1   
    33    16    32 1   
    34    16    33 1   
    35    30    34 1   
@<TRIPOS>SUBSTRUCTURE
     1 N8X         1 TEMP              0 ****  ****    0 ROOT
