@<TRIPOS>MOLECULE
N8X
   34    35     1     0     0
SMALL
abcg2


@<TRIPOS>ATOM
      1 N1           7.4740     0.1520    17.6520 nc         1 N8X      -0.369000
      2 N3           6.4500     1.0450    19.3620 na         1 N8X      -0.361000
      3 C4          14.4270     0.0480    22.4760 c3         1 N8X      -0.046300
      4 C5          12.0420    -0.6320    22.0570 ca         1 N8X      -0.096000
      5 C6          10.7140    -0.7470    22.4460 ca         1 N8X      -0.071300
      6 C7           9.6880    -1.2950    21.4990 c3         1 N8X      -0.106100
      7 C8           8.9880    -0.2100    20.7060 c          1 N8X       0.607100
      8 C10          6.0010     1.6020    18.2160 cd         1 N8X       0.375400
      9 O            9.1870     0.9770    20.8430 o          1 N8X      -0.553100
     10 C3          13.0000    -0.1030    22.9180 ca         1 N8X      -0.069300
     11 C2          12.5990     0.3070    24.1860 ca         1 N8X      -0.102000
     12 C12         10.3410    -0.3310    23.7190 ca         1 N8X      -0.096000
     13 C1          11.2750     0.1980    24.6040 ca         1 N8X      -0.069300
     14 C           10.8700     0.6140    25.9880 c3         1 N8X      -0.046300
     15 C9           7.3780     0.1480    18.9510 cd         1 N8X       0.490400
     16 C11          6.0190     1.3390    20.7110 c3         1 N8X       0.064900
     17 N2           6.5950     1.0710    17.1870 nc         1 N8X      -0.352000
     18 H1          14.5720     0.9900    21.9420 hc         1 N8X       0.042867
     19 H2          15.1120     0.0480    23.3230 hc         1 N8X       0.042867
     20 H3          14.7230    -0.7540    21.8000 hc         1 N8X       0.042867
     21 H4          12.3380    -0.9600    21.0660 ha         1 N8X       0.109000
     22 H5           8.9250    -1.8630    22.0380 hc         1 N8X       0.068200
     23 H6          10.1440    -1.9980    20.7950 hc         1 N8X       0.068200
     24 H7           5.2500     2.3760    18.1890 h5         1 N8X       0.064100
     25 H8          13.3360     0.7180    24.8670 ha         1 N8X       0.111000
     26 H9           9.3050    -0.4240    24.0300 ha         1 N8X       0.109000
     27 H10         10.9810    -0.2120    26.6940 hc         1 N8X       0.042867
     28 H11         11.4840     1.4360    26.3550 hc         1 N8X       0.042867
     29 H12          9.8270     0.9290    26.0220 hc         1 N8X       0.042867
     30 H13          8.0180    -1.6810    19.6360 hn         1 N8X       0.341500
     31 H14          6.0330     0.4270    21.3030 h1         1 N8X       0.059700
     32 H15          6.6690     2.0770    21.1730 h1         1 N8X       0.059700
     33 H16          5.0030     1.7210    20.6800 h1         1 N8X       0.059700
     34 N            8.0730    -0.6870    19.8090 ns         1 N8X      -0.504400
@<TRIPOS>BOND
     1     1    15 2   
     2     1    17 1   
     3     2     8 1   
     4     2    15 1   
     5     2    16 1   
     6     3    10 1   
     7     3    18 1   
     8     3    19 1   
     9     3    20 1   
    10     4     5 ar  
    11     4    10 ar  
    12     4    21 1   
    13     5     6 1   
    14     5    12 ar  
    15     6     7 1   
    16     6    22 1   
    17     6    23 1   
    18     7     9 2   
    19     7    34 1   
    20     8    17 2   
    21     8    24 1   
    22    10    11 ar  
    23    11    13 ar  
    24    11    25 1   
    25    12    13 ar  
    26    12    26 1   
    27    13    14 1   
    28    14    27 1   
    29    14    28 1   
    30    14    29 1   
    31    15    34 1   
    32    16    31 1   
    33    16    32 1   
    34    16    33 1   
    35    30    34 1   
@<TRIPOS>SUBSTRUCTURE
     1 N8X         1 TEMP              0 ****  ****    0 ROOT
