@<TRIPOS>MOLECULE
N8Y
   22    23     1     0     0
SMALL
abcg2


@<TRIPOS>ATOM
      1 N1          -1.8840     2.3800     0.0360 nv         1 N8Y      -1.072900
      2 C1          -1.8380     1.0440     0.0300 ca         1 N8Y       0.400900
      3 N2          -2.9820     0.3860     0.0450 nb         1 N8Y      -0.292000
      4 C2          -2.9310    -0.9550     0.0490 ca         1 N8Y       0.162900
      5 N3          -1.8770    -1.7160     0.0320 nb         1 N8Y      -0.204000
      6 C3          -0.6780    -1.0680     0.0200 ca         1 N8Y       0.019000
      7 C4          -0.5820     0.3380     0.0270 ca         1 N8Y      -0.140000
      8 C5           0.6720     0.9630     0.0320 ca         1 N8Y      -0.123000
      9 C6           1.8280     0.2100     0.0190 ca         1 N8Y       0.124100
     10 O1           2.9930     0.8830     0.0260 os         1 N8Y      -0.345100
     11 C7           4.2050     0.1530    -0.0060 c3         1 N8Y       0.150900
     12 C8           1.7390    -1.1970     0.0010 ca         1 N8Y      -0.155000
     13 C9           0.5130    -1.8140     0.0040 ca         1 N8Y      -0.062000
     14 H1          -2.7780     2.8330    -0.0570 hn         1 N8Y       0.496500
     15 H2          -1.0720     2.9460    -0.1300 hn         1 N8Y       0.496500
     16 H3          -3.8970    -1.4520     0.0650 h5         1 N8Y       0.043100
     17 H4           0.7660     2.0420     0.0490 ha         1 N8Y       0.120000
     18 H5           5.0060     0.8880     0.0020 h1         1 N8Y       0.041700
     19 H6           4.3150    -0.4950     0.8670 h1         1 N8Y       0.041700
     20 H7           4.2930    -0.4540    -0.9100 h1         1 N8Y       0.041700
     21 H8           2.6280    -1.8120    -0.0130 ha         1 N8Y       0.120000
     22 H9           0.4490    -2.8940    -0.0040 ha         1 N8Y       0.134000
@<TRIPOS>BOND
     1     1     2 1   
     2     1    14 1   
     3     1    15 1   
     4     2     3 ar  
     5     2     7 ar  
     6     3     4 ar  
     7     4     5 ar  
     8     4    16 1   
     9     5     6 ar  
    10     6     7 ar  
    11     6    13 ar  
    12     7     8 ar  
    13     8     9 ar  
    14     8    17 1   
    15     9    10 1   
    16     9    12 ar  
    17    10    11 1   
    18    11    18 1   
    19    11    19 1   
    20    11    20 1   
    21    12    13 ar  
    22    12    21 1   
    23    13    22 1   
@<TRIPOS>SUBSTRUCTURE
     1 N8Y         1 TEMP              0 ****  ****    0 ROOT
