@<TRIPOS>MOLECULE
N8Y
   22    23     1     0     0
SMALL
No Charge or Current Charge


@<TRIPOS>ATOM
      1 N1          -1.9180     2.4000     0.0810 nv         1 N8Y      -1.072900
      2 C1          -1.8360     1.0390     0.0680 ca         1 N8Y       0.400900
      3 N2          -3.0250     0.4240     0.0730 nb         1 N8Y      -0.292000
      4 C2          -2.9990    -0.9230     0.0520 ca         1 N8Y       0.162900
      5 N3          -1.9010    -1.7060     0.0260 nb         1 N8Y      -0.204000
      6 C3          -0.6980    -1.0920     0.0220 ca         1 N8Y       0.019000
      7 C4          -0.6160     0.3230     0.0440 ca         1 N8Y      -0.140000
      8 C5           0.6500     0.9560     0.0440 ca         1 N8Y      -0.123000
      9 C6           1.8280     0.1930     0.0190 ca         1 N8Y       0.124100
     10 O1           3.0330     0.8670     0.0200 os         1 N8Y      -0.345100
     11 C7           4.2980     0.1810    -0.0040 c3         1 N8Y       0.150900
     12 C8           1.7460    -1.2150    -0.0060 ca         1 N8Y      -0.155000
     13 C9           0.4890    -1.8470    -0.0040 ca         1 N8Y      -0.062000
     14 H1          -2.8260     2.8210    -0.1030 hn         1 N8Y       0.496500
     15 H2          -1.1060     2.9450    -0.1930 hn         1 N8Y       0.496500
     16 H3          -3.9610    -1.4310     0.0550 h5         1 N8Y       0.043100
     17 H4           0.7340     2.0380     0.0680 ha         1 N8Y       0.120000
     18 H5           5.1230     0.9040     0.0020 h1         1 N8Y       0.041700
     19 H6           4.4070    -0.4670     0.8760 h1         1 N8Y       0.041700
     20 H7           4.3910    -0.4340    -0.9080 h1         1 N8Y       0.041700
     21 H8           2.6380    -1.8340    -0.0260 ha         1 N8Y       0.120000
     22 H9           0.4360    -2.9330    -0.0220 ha         1 N8Y       0.134000
@<TRIPOS>BOND
     1     1     2 1   
     2     1    14 1   
     3     1    15 1   
     4     2     3 ar  
     5     2     7 ar  
     6     3     4 ar  
     7     4     5 ar  
     8     4    16 1   
     9     5     6 ar  
    10     6     7 ar  
    11     6    13 ar  
    12     7     8 ar  
    13     8     9 ar  
    14     8    17 1   
    15     9    10 1   
    16     9    12 ar  
    17    10    11 1   
    18    11    18 1   
    19    11    19 1   
    20    11    20 1   
    21    12    13 ar  
    22    12    21 1   
    23    13    22 1   
@<TRIPOS>SUBSTRUCTURE
     1 N8Y         1 TEMP              0 ****  ****    0 ROOT
