@<TRIPOS>MOLECULE
N90
   56    59     1     0     0
SMALL
bcc


@<TRIPOS>ATOM
      1 C01        143.9580   154.9120   149.3170 ca         1 N90      -0.117250
      2 C02        144.6220   156.1350   149.2390 ca         1 N90      -0.097300
      3 C03        144.3670   156.9560   148.1440 ca         1 N90      -0.117250
      4 C04        143.4750   156.5690   147.1500 ca         1 N90      -0.132750
      5 C05        142.8240   155.3470   147.2390 ca         1 N90      -0.126000
      6 C06        143.0680   154.5200   148.3280 ca         1 N90      -0.132750
      7 C07        145.6570   156.5510   150.2710 c3         1 N90       0.290100
      8 C08        145.2140   156.3020   151.7040 ca         1 N90      -0.097300
      9 C09        146.1210   155.9230   152.6900 ca         1 N90      -0.117250
     10 C10        145.7130   155.7590   154.0080 ca         1 N90      -0.132750
     11 C11        144.3920   155.9850   154.3680 ca         1 N90      -0.126000
     12 C12        143.4830   156.3810   153.3950 ca         1 N90      -0.132750
     13 C13        143.8900   156.5340   152.0780 ca         1 N90      -0.117250
     14 C15        147.0620   154.5670   149.8620 c6         1 N90       0.174800
     15 C16        148.5160   154.1300   149.8840 c6         1 N90       0.170800
     16 C18        149.1560   156.2340   148.9520 c6         1 N90       0.170800
     17 C19        147.7010   156.6690   148.9410 c6         1 N90       0.174800
     18 C20        150.6010   154.3060   148.6380 c3         1 N90       0.208000
     19 C21        151.5470   154.5620   149.7760 c2         1 N90      -0.199200
     20 C22        152.6760   155.2620   149.6540 ce         1 N90      -0.102200
     21 C23        153.6580   155.5400   150.7080 ca         1 N90      -0.053800
     22 C24        154.8990   156.0710   150.3500 ca         1 N90      -0.117000
     23 C25        155.8690   156.3390   151.3060 ca         1 N90      -0.129500
     24 C26        155.6120   156.0860   152.6460 ca         1 N90      -0.124000
     25 C27        154.3760   155.5690   153.0190 ca         1 N90      -0.129500
     26 C28        153.4110   155.3000   152.0630 ca         1 N90      -0.117000
     27 N14        146.9830   156.0070   150.0120 n3         1 N90      -0.744600
     28 N17        149.2450   154.7940   148.8230 n3         1 N90      -0.728600
     29 H1         144.1250   154.2580   150.1650 ha         1 N90       0.136000
     30 H2         144.8630   157.9170   148.0700 ha         1 N90       0.136000
     31 H3         143.2880   157.2270   146.3110 ha         1 N90       0.129500
     32 H4         142.1260   155.0440   146.4690 ha         1 N90       0.129500
     33 H5         142.5600   153.5670   148.4100 ha         1 N90       0.129500
     34 H6         145.7700   157.6380   150.1790 h1         1 N90       0.065700
     35 H7         147.1560   155.7580   152.4240 ha         1 N90       0.136000
     36 H8         146.4340   155.4540   154.7560 ha         1 N90       0.129500
     37 H9         144.0740   155.8570   155.3940 ha         1 N90       0.129500
     38 H10        142.4500   156.5690   153.6620 ha         1 N90       0.129500
     39 H11        143.1650   156.8390   151.3340 ha         1 N90       0.136000
     40 H12        146.6010   154.2210   148.9240 h1         1 N90       0.041200
     41 H13        146.5310   154.0790   150.6820 h1         1 N90       0.041200
     42 H14        148.5700   153.0490   149.7320 h1         1 N90       0.037200
     43 H15        148.9290   154.3410   150.8840 h1         1 N90       0.037200
     44 H16        149.6320   156.6050   149.8740 h1         1 N90       0.037200
     45 H17        149.6780   156.7000   148.1120 h1         1 N90       0.037200
     46 H18        147.6490   157.7500   149.0890 h1         1 N90       0.041200
     47 H19        147.2690   156.4540   147.9510 h1         1 N90       0.041200
     48 H20        150.5370   153.2260   148.4620 h1         1 N90       0.055700
     49 H21        151.0050   154.7500   147.7240 h1         1 N90       0.055700
     50 H22        151.2780   154.1310   150.7360 ha         1 N90       0.122000
     51 H23        152.9270   155.6620   148.6740 ha         1 N90       0.119000
     52 H24        155.1080   156.2720   149.3050 ha         1 N90       0.129000
     53 H25        156.8250   156.7460   151.0020 ha         1 N90       0.130000
     54 H26        156.3650   156.2960   153.3950 ha         1 N90       0.130000
     55 H27        154.1630   155.3780   154.0630 ha         1 N90       0.130000
     56 H28        152.4520   154.9080   152.3810 ha         1 N90       0.129000
@<TRIPOS>BOND
     1     1     2 ar  
     2     1     6 ar  
     3     1    29 1   
     4     2     3 ar  
     5     2     7 1   
     6     3     4 ar  
     7     3    30 1   
     8     4     5 ar  
     9     4    31 1   
    10     5     6 ar  
    11     5    32 1   
    12     6    33 1   
    13     7     8 1   
    14     7    27 1   
    15     7    34 1   
    16     8     9 ar  
    17     8    13 ar  
    18     9    10 ar  
    19     9    35 1   
    20    10    11 ar  
    21    10    36 1   
    22    11    12 ar  
    23    11    37 1   
    24    12    13 ar  
    25    12    38 1   
    26    13    39 1   
    27    14    15 1   
    28    14    27 1   
    29    14    40 1   
    30    14    41 1   
    31    15    28 1   
    32    15    42 1   
    33    15    43 1   
    34    16    17 1   
    35    16    28 1   
    36    16    44 1   
    37    16    45 1   
    38    17    27 1   
    39    17    46 1   
    40    17    47 1   
    41    18    19 1   
    42    18    28 1   
    43    18    48 1   
    44    18    49 1   
    45    19    20 2   
    46    19    50 1   
    47    20    21 1   
    48    20    51 1   
    49    21    22 ar  
    50    21    26 ar  
    51    22    23 ar  
    52    22    52 1   
    53    23    24 ar  
    54    23    53 1   
    55    24    25 ar  
    56    24    54 1   
    57    25    26 ar  
    58    25    55 1   
    59    26    56 1   
@<TRIPOS>SUBSTRUCTURE
     1 N90         1 TEMP              0 ****  ****    0 ROOT
