@<TRIPOS>MOLECULE
N90
   56    59     1     0     0
SMALL
No Charge or Current Charge


@<TRIPOS>ATOM
      1 C01        144.0420   154.9950   149.3300 ca         1 N90      -0.099250
      2 C02        144.7630   156.2080   149.2650 ca         1 N90      -0.097300
      3 C03        144.5170   157.0900   148.1910 ca         1 N90      -0.099250
      4 C04        143.5760   156.7630   147.1990 ca         1 N90      -0.114750
      5 C05        142.8680   155.5520   147.2720 ca         1 N90      -0.108000
      6 C06        143.1010   154.6690   148.3390 ca         1 N90      -0.114750
      7 C07        145.7930   156.5870   150.3470 c3         1 N90       0.290100
      8 C08        145.2620   156.3700   151.7830 ca         1 N90      -0.097300
      9 C09        146.1210   155.9900   152.8430 ca         1 N90      -0.099250
     10 C10        145.6240   155.8210   154.1470 ca         1 N90      -0.114750
     11 C11        144.2660   156.0460   154.4190 ca         1 N90      -0.108000
     12 C12        143.4070   156.4500   153.3860 ca         1 N90      -0.114750
     13 C13        143.9020   156.6190   152.0810 ca         1 N90      -0.099250
     14 C15        147.1680   154.4900   150.0490 c6         1 N90       0.174800
     15 C16        148.6210   153.9340   149.8980 c6         1 N90       0.170800
     16 C18        149.2790   155.9880   148.7230 c6         1 N90       0.170800
     17 C19        147.8260   156.5440   148.8860 c6         1 N90       0.174800
     18 C20        150.6690   153.9280   148.4680 c3         1 N90       0.208000
     19 C21        151.6410   154.2570   149.5830 c2         1 N90      -0.249200
     20 C22        152.5310   155.2760   149.5770 ce         1 N90      -0.152200
     21 C23        153.4970   155.6060   150.6670 ca         1 N90      -0.053800
     22 C24        154.5520   156.5010   150.3970 ca         1 N90      -0.099000
     23 C25        155.4790   156.8390   151.3980 ca         1 N90      -0.111500
     24 C26        155.3580   156.2870   152.6840 ca         1 N90      -0.106000
     25 C27        154.3060   155.4000   152.9660 ca         1 N90      -0.111500
     26 C28        153.3790   155.0610   151.9640 ca         1 N90      -0.099000
     27 N14        147.1380   155.9890   150.0930 n3         1 N90      -0.744600
     28 N17        149.3180   154.4910   148.6970 n3         1 N90      -0.728600
     29 H1         144.2100   154.3030   150.1530 ha         1 N90       0.118000
     30 H2         145.0580   158.0310   148.1230 ha         1 N90       0.118000
     31 H3         143.3960   157.4480   146.3750 ha         1 N90       0.111500
     32 H4         142.1400   155.2990   146.5040 ha         1 N90       0.111500
     33 H5         142.5520   153.7310   148.3980 ha         1 N90       0.111500
     34 H6         145.9130   157.6780   150.2790 h1         1 N90       0.065700
     35 H7         147.1810   155.8270   152.6640 ha         1 N90       0.118000
     36 H8         146.2950   155.5220   154.9490 ha         1 N90       0.111500
     37 H9         143.8820   155.9170   155.4290 ha         1 N90       0.111500
     38 H10        142.3560   156.6370   153.5960 ha         1 N90       0.111500
     39 H11        143.2200   156.9470   151.3000 ha         1 N90       0.118000
     40 H12        146.5790   154.1220   149.1970 h1         1 N90       0.041200
     41 H13        146.7220   154.0630   150.9570 h1         1 N90       0.041200
     42 H14        148.5720   152.8370   149.8350 h1         1 N90       0.037200
     43 H15        149.1800   154.1800   150.8130 h1         1 N90       0.037200
     44 H16        149.8860   156.3700   149.5570 h1         1 N90       0.037200
     45 H17        149.7110   156.3960   147.7980 h1         1 N90       0.037200
     46 H18        147.8770   157.6410   148.9450 h1         1 N90       0.041200
     47 H19        147.2580   156.2970   147.9760 h1         1 N90       0.041200
     48 H20        150.6020   152.8360   148.3660 h1         1 N90       0.055700
     49 H21        151.0710   154.3040   147.5170 h1         1 N90       0.055700
     50 H22        151.5760   153.5660   150.4220 ha         1 N90       0.172000
     51 H23        152.5830   155.9360   148.7090 ha         1 N90       0.169000
     52 H24        154.6590   156.9360   149.4050 ha         1 N90       0.111000
     53 H25        156.2910   157.5280   151.1770 ha         1 N90       0.112000
     54 H26        156.0740   156.5480   153.4600 ha         1 N90       0.112000
     55 H27        154.2070   154.9750   153.9620 ha         1 N90       0.112000
     56 H28        152.5680   154.3820   152.2110 ha         1 N90       0.111000
@<TRIPOS>BOND
     1     1     2 ar  
     2     1     6 ar  
     3     1    29 1   
     4     2     3 ar  
     5     2     7 1   
     6     3     4 ar  
     7     3    30 1   
     8     4     5 ar  
     9     4    31 1   
    10     5     6 ar  
    11     5    32 1   
    12     6    33 1   
    13     7     8 1   
    14     7    27 1   
    15     7    34 1   
    16     8     9 ar  
    17     8    13 ar  
    18     9    10 ar  
    19     9    35 1   
    20    10    11 ar  
    21    10    36 1   
    22    11    12 ar  
    23    11    37 1   
    24    12    13 ar  
    25    12    38 1   
    26    13    39 1   
    27    14    15 1   
    28    14    27 1   
    29    14    40 1   
    30    14    41 1   
    31    15    28 1   
    32    15    42 1   
    33    15    43 1   
    34    16    17 1   
    35    16    28 1   
    36    16    44 1   
    37    16    45 1   
    38    17    27 1   
    39    17    46 1   
    40    17    47 1   
    41    18    19 1   
    42    18    28 1   
    43    18    48 1   
    44    18    49 1   
    45    19    20 2   
    46    19    50 1   
    47    20    21 1   
    48    20    51 1   
    49    21    22 ar  
    50    21    26 ar  
    51    22    23 ar  
    52    22    52 1   
    53    23    24 ar  
    54    23    53 1   
    55    24    25 ar  
    56    24    54 1   
    57    25    26 ar  
    58    25    55 1   
    59    26    56 1   
@<TRIPOS>SUBSTRUCTURE
     1 N90         1 TEMP              0 ****  ****    0 ROOT
