@<TRIPOS>MOLECULE
N91
   25    26     1     0     0
SMALL
No Charge or Current Charge


@<TRIPOS>ATOM
      1 O10          3.6210    -1.5100    -0.2130 o          1 N91      -0.587100
      2 C10          3.6030    -0.2860    -0.1440 c          1 N91       0.606100
      3 C11          4.8940     0.5270    -0.1230 c3         1 N91      -0.181100
      4 N5           2.4490     0.4850    -0.0780 ns         1 N91      -0.155000
      5 C5           1.0650     0.1470    -0.0700 ca         1 N91      -0.049000
      6 C4           0.1380     1.2130     0.0070 ca         1 N91      -0.101000
      7 C9          -1.2350     0.9290     0.0180 ca         1 N91       0.086400
      8 N3          -2.2830     1.8320     0.0890 nc         1 N91      -0.577100
      9 C2          -3.3680     1.0260     0.0650 cd         1 N91       0.421700
     10 N1          -3.0440    -0.3380    -0.0170 na         1 N91      -0.180600
     11 C1          -3.9230    -1.5150    -0.0650 c3         1 N91       0.067900
     12 C8          -1.6770    -0.3610    -0.0450 ca         1 N91      -0.098200
     13 C7          -0.8020    -1.4520    -0.1220 ca         1 N91      -0.094000
     14 C6           0.5830    -1.1890    -0.1350 ca         1 N91      -0.095000
     15 H111         5.7900    -0.1020    -0.1760 hc         1 N91       0.062033
     16 H112         4.8660     1.2620    -0.9350 hc         1 N91       0.062033
     17 H113         4.8990     1.1650     0.7680 hc         1 N91       0.062033
     18 H5           2.6250     1.4800    -0.0250 hn         1 N91       0.150000
     19 H4           0.4770     2.2440     0.0580 ha         1 N91       0.127000
     20 H6           1.2620    -2.0340    -0.1950 ha         1 N91       0.138000
     21 H2          -4.4010     1.3540     0.1030 h5         1 N91       0.058800
     22 H11C        -3.7460    -2.0690    -0.9960 h1         1 N91       0.051367
     23 H12C        -3.7120    -2.1680     0.7910 h1         1 N91       0.051367
     24 H13C        -4.9720    -1.1980    -0.0280 h1         1 N91       0.051367
     25 H7          -1.1740    -2.4730    -0.1720 ha         1 N91       0.120000
@<TRIPOS>BOND
     1     1     2 2   
     2     2     3 1   
     3     2     4 1   
     4     3    15 1   
     5     3    16 1   
     6     3    17 1   
     7     4     5 1   
     8     4    18 1   
     9     5     6 ar  
    10     5    14 ar  
    11     6     7 ar  
    12     6    19 1   
    13     7     8 1   
    14     7    12 ar  
    15     8     9 2   
    16     9    10 1   
    17     9    21 1   
    18    10    11 1   
    19    10    12 1   
    20    11    22 1   
    21    11    23 1   
    22    11    24 1   
    23    12    13 ar  
    24    13    14 ar  
    25    13    25 1   
    26    14    20 1   
@<TRIPOS>SUBSTRUCTURE
     1 N91         1 TEMP              0 ****  ****    0 ROOT
