@<TRIPOS>MOLECULE
N91
   25    26     1     0     0
SMALL
abcg2


@<TRIPOS>ATOM
      1 O10          3.3780    -1.2500     0.7090 o          1 N91      -0.587100
      2 C10          3.4770    -0.1670     0.1570 c          1 N91       0.606100
      3 C11          4.8110     0.5100    -0.0360 c3         1 N91      -0.181100
      4 N5           2.4180     0.5290    -0.3270 ns         1 N91      -0.155000
      5 C5           1.0560     0.1920    -0.2200 ca         1 N91      -0.049000
      6 C4           0.1500     1.2290    -0.0520 ca         1 N91      -0.101000
      7 C9          -1.2060     0.9200     0.0080 ca         1 N91       0.086400
      8 N3          -2.2940     1.7460     0.1650 nc         1 N91      -0.577100
      9 C2          -3.3180     0.9390     0.1630 cd         1 N91       0.421700
     10 N1          -2.9930    -0.3680     0.0160 na         1 N91      -0.180600
     11 C1          -3.8990    -1.4900    -0.0230 c3         1 N91       0.067900
     12 C8          -1.6270    -0.4140    -0.0860 ca         1 N91      -0.098200
     13 C7          -0.7290    -1.4600    -0.2560 ca         1 N91      -0.094000
     14 C6           0.6150    -1.1410    -0.3280 ca         1 N91      -0.095000
     15 H111         5.4830    -0.1620    -0.5690 hc         1 N91       0.062033
     16 H112         4.7540     1.4480    -0.5850 hc         1 N91       0.062033
     17 H113         5.2560     0.7080     0.9390 hc         1 N91       0.062033
     18 H5           2.6100     1.4510    -0.6850 hn         1 N91       0.150000
     19 H4           0.4880     2.2560     0.0310 ha         1 N91       0.127000
     20 H6           1.3290    -1.9340    -0.4820 ha         1 N91       0.138000
     21 H2          -4.3500     1.2450     0.2660 h5         1 N91       0.058800
     22 H11C        -3.7850    -2.0420    -0.9550 h1         1 N91       0.051367
     23 H12C        -3.7180    -2.1630     0.8130 h1         1 N91       0.051367
     24 H13C        -4.9200    -1.1230     0.0400 h1         1 N91       0.051367
     25 H7          -1.0520    -2.4890    -0.3430 ha         1 N91       0.120000
@<TRIPOS>BOND
     1     1     2 2   
     2     2     3 1   
     3     2     4 1   
     4     3    15 1   
     5     3    16 1   
     6     3    17 1   
     7     4     5 1   
     8     4    18 1   
     9     5     6 ar  
    10     5    14 ar  
    11     6     7 ar  
    12     6    19 1   
    13     7     8 1   
    14     7    12 ar  
    15     8     9 2   
    16     9    10 1   
    17     9    21 1   
    18    10    11 1   
    19    10    12 1   
    20    11    22 1   
    21    11    23 1   
    22    11    24 1   
    23    12    13 ar  
    24    13    14 ar  
    25    13    25 1   
    26    14    20 1   
@<TRIPOS>SUBSTRUCTURE
     1 N91         1 TEMP              0 ****  ****    0 ROOT
