@<TRIPOS>MOLECULE
N92
   33    35     1     0     0
SMALL
bcc


@<TRIPOS>ATOM
      1 C02         -3.1590    49.1060    39.2650 c          1 N92       0.937200
      2 C04         -2.0750    48.9690    38.2350 ca         1 N92      -0.288600
      3 C05         -2.2990    49.2650    36.8940 ca         1 N92      -0.025000
      4 C06         -1.3100    49.1410    35.9420 ca         1 N92      -0.278000
      5 C07         -0.0310    48.7050    36.3250 ca         1 N92       0.175600
      6 C09          2.2190    48.2400    35.3810 cc         1 N92       0.755300
      7 C11          4.1600    47.5300    36.1500 cd         1 N92       0.458800
      8 C12          5.0190    47.0350    37.2320 ca         1 N92      -0.111500
      9 C13          6.3990    46.9020    37.0670 ca         1 N92      -0.095000
     10 C14          7.2030    46.4380    38.0930 ca         1 N92      -0.132000
     11 C15          6.6250    46.1000    39.3080 ca         1 N92       0.028400
     12 C17          5.2590    46.2220    39.5020 ca         1 N92      -0.132000
     13 C18          4.4660    46.6890    38.4650 ca         1 N92      -0.095000
     14 C19          4.5340    47.7340    34.8590 cc         1 N92      -0.228400
     15 C21          0.2250    48.3990    37.6560 ca         1 N92      -0.248000
     16 C22         -0.7900    48.5320    38.6090 ca         1 N92       0.236100
     17 N08          0.9180    48.6170    35.3110 nu         1 N92      -0.724300
     18 N10          2.8470    47.8170    36.4280 nd         1 N92      -0.719000
     19 O01         -4.2810    49.4860    38.9220 o          1 N92      -0.800800
     20 O03         -2.8190    48.8060    40.4570 o          1 N92      -0.800800
     21 O23         -0.5210    48.2390    39.8760 oh         1 N92      -0.593100
     22 S20          3.2040    48.3230    33.9390 ss         1 N92      -0.301300
     23 CL1          7.6260    45.5250    40.6000 cl         1 N92      -0.130400
     24 H051        -3.2820    49.6020    36.5900 ha         1 N92       0.139000
     25 H061        -1.5150    49.3810    34.9050 ha         1 N92       0.104000
     26 H131         6.8700    47.1720    36.1310 ha         1 N92       0.152000
     27 H141         8.2700    46.3460    37.9470 ha         1 N92       0.144000
     28 H171         4.8110    45.9590    40.4500 ha         1 N92       0.144000
     29 H181         3.4000    46.7830    38.6210 ha         1 N92       0.152000
     30 H191         5.4910    47.5700    34.3910 h4         1 N92       0.168000
     31 H211         1.2000    48.0610    37.9710 ha         1 N92       0.157000
     32 H081         0.5840    48.8880    34.3990 hn         1 N92       0.440800
     33 H231        -1.4230    48.4190    40.3510 ho         1 N92       0.513000
@<TRIPOS>BOND
     1     1     2 1   
     2     1    19 1   
     3     1    20 1   
     4     2     3 ar  
     5     2    16 ar  
     6     3     4 ar  
     7     3    24 1   
     8     4     5 ar  
     9     4    25 1   
    10     5    15 ar  
    11     5    17 1   
    12     6    17 1   
    13     6    18 2   
    14     6    22 1   
    15     7     8 1   
    16     7    14 2   
    17     7    18 1   
    18     8     9 ar  
    19     8    13 ar  
    20     9    10 ar  
    21     9    26 1   
    22    10    11 ar  
    23    10    27 1   
    24    11    12 ar  
    25    11    23 1   
    26    12    13 ar  
    27    12    28 1   
    28    13    29 1   
    29    14    22 1   
    30    14    30 1   
    31    15    16 ar  
    32    15    31 1   
    33    16    21 1   
    34    17    32 1   
    35    21    33 1   
@<TRIPOS>SUBSTRUCTURE
     1 N92         1 TEMP              0 ****  ****    0 ROOT
