@<TRIPOS>MOLECULE
N92
   33    35     1     0     0
SMALL
No Charge or Current Charge


@<TRIPOS>ATOM
      1 C02         -3.2730    48.7300    39.2090 c          1 N92       0.726600
      2 C04         -2.1190    48.8110    38.2360 ca         1 N92      -0.288600
      3 C05         -2.3460    48.6300    36.8530 ca         1 N92      -0.007000
      4 C06         -1.2800    48.7040    35.9410 ca         1 N92      -0.260000
      5 C07          0.0230    48.9460    36.3870 ca         1 N92       0.314000
      6 C09          2.3380    48.6270    35.4320 cc         1 N92       0.755300
      7 C11          4.1850    47.6910    36.2040 cd         1 N92       0.393500
      8 C12          5.0120    47.0100    37.2310 ca         1 N92      -0.111500
      9 C13          6.3570    46.6580    36.9670 ca         1 N92      -0.077000
     10 C14          7.1360    46.0120    37.9450 ca         1 N92      -0.114000
     11 C15          6.5840    45.7090    39.1970 ca         1 N92       0.120000
     12 C17          5.2530    46.0500    39.4770 ca         1 N92      -0.114000
     13 C18          4.4720    46.6950    38.5020 ca         1 N92      -0.077000
     14 C19          4.6190    48.0400    34.9410 cc         1 N92      -0.290000
     15 C21          0.2560    49.1430    37.7530 ca         1 N92      -0.230000
     16 C22         -0.8010    49.0710    38.6670 ca         1 N92       0.236100
     17 N08          1.0380    49.0310    35.4460 nu         1 N92      -0.917900
     18 N10          2.8660    48.0290    36.4730 nd         1 N92      -0.719000
     19 O01         -4.3910    48.5000    38.7750 o          1 N92      -0.695500
     20 O03         -3.0350    48.9010    40.3980 o          1 N92      -0.695500
     21 O23         -0.5360    49.2640    39.9830 oh         1 N92      -0.632100
     22 S20          3.3540    48.8160    34.0320 ss         1 N92      -0.156400
     23 Cl1          7.5600    44.9010    40.4170 cl         1 N92      -0.222000
     24 H051        -3.3480    48.4330    36.4750 ha         1 N92       0.121000
     25 H061        -1.4770    48.5630    34.8810 ha         1 N92       0.086000
     26 H131         6.8140    46.8790    36.0060 ha         1 N92       0.134000
     27 H141         8.1680    45.7470    37.7290 ha         1 N92       0.126000
     28 H171         4.8260    45.8140    40.4480 ha         1 N92       0.126000
     29 H181         3.4420    46.9490    38.7440 ha         1 N92       0.134000
     30 H191         5.5870    47.8920    34.4840 h4         1 N92       0.150000
     31 H211         1.2560    49.3600    38.1110 ha         1 N92       0.139000
     32 H081         0.7170    49.2270    34.5040 hn         1 N92       0.496000
     33 H231        -1.4310    49.1670    40.4230 ho         1 N92       0.552000
@<TRIPOS>BOND
     1     1     2 1   
     2     1    19 1   
     3     1    20 1   
     4     2     3 ar  
     5     2    16 ar  
     6     3     4 ar  
     7     3    24 1   
     8     4     5 ar  
     9     4    25 1   
    10     5    15 ar  
    11     5    17 1   
    12     6    17 1   
    13     6    18 2   
    14     6    22 1   
    15     7     8 1   
    16     7    14 2   
    17     7    18 1   
    18     8     9 ar  
    19     8    13 ar  
    20     9    10 ar  
    21     9    26 1   
    22    10    11 ar  
    23    10    27 1   
    24    11    12 ar  
    25    11    23 1   
    26    12    13 ar  
    27    12    28 1   
    28    13    29 1   
    29    14    22 1   
    30    14    30 1   
    31    15    16 ar  
    32    15    31 1   
    33    16    21 1   
    34    17    32 1   
    35    21    33 1   
@<TRIPOS>SUBSTRUCTURE
     1 N92         1 TEMP              0 ****  ****    0 ROOT
