@<TRIPOS>MOLECULE
N93
   40    42     1     0     0
SMALL
No Charge or Current Charge


@<TRIPOS>ATOM
      1 Cl2          6.7610    -2.9960    -0.0270 cl         1 N93      -0.177000
      2 C14          6.1320    -1.3560     0.0130 ca         1 N93       0.443000
      3 C13          6.9940    -0.2750     0.2960 ca         1 N93      -0.162000
      4 C12          6.4660     1.0280     0.3220 ca         1 N93      -0.057000
      5 N3           4.8090    -1.2190    -0.2390 nb         1 N93      -0.621000
      6 C15          4.3140     0.0270    -0.2120 ca         1 N93       0.525000
      7 C11          5.0970     1.1300     0.0570 ca         1 N93      -0.147200
      8 N2           4.3190     2.2520     0.0150 na         1 N93      -0.344600
      9 N4           3.0060     0.4030    -0.4360 nc         1 N93      -0.714700
     10 C10          3.0720     1.7280    -0.2890 cd         1 N93       0.678700
     11 N            1.9550     2.5450    -0.4270 nh         1 N93      -0.747600
     12 C            2.0250     4.0060    -0.1950 c3         1 N93       0.204100
     13 C1           0.6210     1.9870    -0.7720 c3         1 N93       0.234800
     14 C2          -0.1960     1.5000     0.4560 c3         1 N93       0.132800
     15 N1          -1.5310     0.9750     0.0740 n7         1 N93      -0.870400
     16 C3          -2.3860     0.5620     1.2010 c3         1 N93       0.208100
     17 C4          -3.7160     0.0290     0.6880 ca         1 N93      -0.070300
     18 C9          -4.7220     0.9220     0.2670 ca         1 N93      -0.094500
     19 C8          -5.9510     0.4340    -0.2070 ca         1 N93       0.124000
     20 Cl1         -7.1990     1.5580    -0.7310 cl         1 N93      -0.195000
     21 C7          -6.1860    -0.9490    -0.2650 ca         1 N93      -0.097000
     22 C6          -5.1880    -1.8430     0.1510 ca         1 N93       0.124000
     23 Cl          -5.4780    -3.5760     0.0790 cl         1 N93      -0.195000
     24 C5          -3.9570    -1.3580     0.6260 ca         1 N93      -0.094500
     25 H1           8.0480    -0.4530     0.4900 ha         1 N93       0.138000
     26 H2           7.0840     1.8980     0.5350 ha         1 N93       0.123000
     27 H3           4.5620     3.2210     0.1580 hn         1 N93       0.359000
     28 H5           2.6670     4.4820    -0.9480 h1         1 N93       0.043367
     29 H6           1.0300     4.4680    -0.2540 h1         1 N93       0.043367
     30 H7           2.4360     4.2180     0.8010 h1         1 N93       0.043367
     31 H8           0.0240     2.7450    -1.2990 h1         1 N93       0.074700
     32 H9           0.7310     1.1490    -1.4730 h1         1 N93       0.074700
     33 H10          0.3830     0.7250     0.9780 h1         1 N93       0.040200
     34 H11         -0.3090     2.3460     1.1490 h1         1 N93       0.040200
     35 H12         -1.3980     0.1550    -0.5330 hn         1 N93       0.422000
     36 H14         -1.8890    -0.2160     1.7970 h1         1 N93       0.043200
     37 H15         -2.5770     1.4130     1.8700 h1         1 N93       0.043200
     38 H16         -4.5480     1.9950     0.3040 ha         1 N93       0.140000
     39 H17         -7.1370    -1.3250    -0.6320 ha         1 N93       0.145000
     40 H18         -3.1920    -2.0620     0.9450 ha         1 N93       0.140000
@<TRIPOS>BOND
     1     1     2 1   
     2     2     3 ar  
     3     2     5 ar  
     4     3     4 ar  
     5     3    25 1   
     6     4     7 ar  
     7     4    26 1   
     8     5     6 ar  
     9     6     7 ar  
    10     6     9 1   
    11     7     8 1   
    12     8    10 1   
    13     8    27 1   
    14     9    10 2   
    15    10    11 1   
    16    11    12 1   
    17    11    13 1   
    18    12    28 1   
    19    12    29 1   
    20    12    30 1   
    21    13    14 1   
    22    13    31 1   
    23    13    32 1   
    24    14    15 1   
    25    14    33 1   
    26    14    34 1   
    27    15    16 1   
    28    15    35 1   
    29    16    17 1   
    30    16    36 1   
    31    16    37 1   
    32    17    18 ar  
    33    17    24 ar  
    34    18    19 ar  
    35    18    38 1   
    36    19    20 1   
    37    19    21 ar  
    38    21    22 ar  
    39    21    39 1   
    40    22    23 1   
    41    22    24 ar  
    42    24    40 1   
@<TRIPOS>SUBSTRUCTURE
     1 N93         1 TEMP              0 ****  ****    0 ROOT
