@<TRIPOS>MOLECULE
N93
   40    42     1     0     0
SMALL
bcc


@<TRIPOS>ATOM
      1 CL2          6.8030    -2.7120    -0.7950 cl         1 N93      -0.177000
      2 C14          6.1090    -1.1480    -0.4560 ca         1 N93       0.508300
      3 C13          6.9330    -0.1720     0.0860 ca         1 N93      -0.245300
      4 C12          6.3860     1.0820     0.3620 ca         1 N93      -0.075000
      5 N3           4.8330    -1.0150    -0.7460 nb         1 N93      -0.621000
      6 C15          4.3090     0.1750    -0.4860 ca         1 N93       0.590300
      7 C11          5.0530     1.2390     0.0660 ca         1 N93      -0.212500
      8 N2           4.1530     2.2680     0.1760 na         1 N93      -0.294300
      9 N4           3.0200     0.5450    -0.6980 nc         1 N93      -0.714700
     10 C10          2.9590     1.8040    -0.2990 cd         1 N93       0.678700
     11 N            1.8670     2.5770    -0.3590 nh         1 N93      -0.747600
     12 C            1.8730     3.8930     0.2460 c3         1 N93       0.204100
     13 C1           0.5990     1.9860    -0.7400 c3         1 N93       0.234800
     14 C2          -0.1360     1.3600     0.4400 c3         1 N93       0.132800
     15 N1          -1.4140     0.8410    -0.0010 n7         1 N93      -0.815200
     16 C3          -2.2170     0.3110     1.0770 c3         1 N93       0.208100
     17 C4          -3.5960    -0.0840     0.6150 ca         1 N93      -0.070300
     18 C9          -4.2160     0.5920    -0.4310 ca         1 N93      -0.112500
     19 C8          -5.4990     0.2320    -0.8080 ca         1 N93       0.032400
     20 CL1         -6.2640     1.0760    -2.1130 cl         1 N93      -0.103400
     21 C7          -6.1940    -0.7860    -0.1750 ca         1 N93      -0.115000
     22 C6          -5.5560    -1.4460     0.8620 ca         1 N93       0.032400
     23 CL          -6.3870    -2.7330     1.6690 cl         1 N93      -0.103400
     24 C5          -4.2720    -1.1140     1.2600 ca         1 N93      -0.112500
     25 H1           7.9740    -0.3760     0.2890 ha         1 N93       0.156000
     26 H2           6.9910     1.8740     0.7830 ha         1 N93       0.141000
     27 H3           4.3480     3.1890     0.5350 hn         1 N93       0.308700
     28 H5           2.6780     4.5100    -0.1560 h1         1 N93       0.043367
     29 H6           0.9380     4.3920     0.0050 h1         1 N93       0.043367
     30 H7           1.9690     3.8570     1.3340 h1         1 N93       0.043367
     31 H8          -0.0180     2.7670    -1.1850 h1         1 N93       0.074700
     32 H9           0.7780     1.2360    -1.5110 h1         1 N93       0.074700
     33 H10          0.5050     0.5970     0.9070 h1         1 N93       0.040200
     34 H11         -0.3190     2.1260     1.2000 h1         1 N93       0.040200
     35 H12         -1.2580     0.1090    -0.6860 hn         1 N93       0.366800
     36 H14         -1.7520    -0.5450     1.5870 h1         1 N93       0.043200
     37 H15         -2.3210     1.0920     1.8380 h1         1 N93       0.043200
     38 H16         -3.6920     1.3860    -0.9460 ha         1 N93       0.158000
     39 H17         -7.1940    -1.0570    -0.4810 ha         1 N93       0.163000
     40 H18         -3.7960    -1.6570     2.0680 ha         1 N93       0.158000
@<TRIPOS>BOND
     1     1     2 1   
     2     2     3 ar  
     3     2     5 ar  
     4     3     4 ar  
     5     3    25 1   
     6     4     7 ar  
     7     4    26 1   
     8     5     6 ar  
     9     6     7 ar  
    10     6     9 1   
    11     7     8 1   
    12     8    10 1   
    13     8    27 1   
    14     9    10 2   
    15    10    11 1   
    16    11    12 1   
    17    11    13 1   
    18    12    28 1   
    19    12    29 1   
    20    12    30 1   
    21    13    14 1   
    22    13    31 1   
    23    13    32 1   
    24    14    15 1   
    25    14    33 1   
    26    14    34 1   
    27    15    16 1   
    28    15    35 1   
    29    16    17 1   
    30    16    36 1   
    31    16    37 1   
    32    17    18 ar  
    33    17    24 ar  
    34    18    19 ar  
    35    18    38 1   
    36    19    20 1   
    37    19    21 ar  
    38    21    22 ar  
    39    21    39 1   
    40    22    23 1   
    41    22    24 ar  
    42    24    40 1   
@<TRIPOS>SUBSTRUCTURE
     1 N93         1 TEMP              0 ****  ****    0 ROOT
