@<TRIPOS>MOLECULE
N94
   49    52     1     0     0
SMALL
abcg2


@<TRIPOS>ATOM
      1 C5           9.7770    -1.7740    41.2890 ca         1 N94       0.204000
      2 C6           8.5600    -2.4420    41.2460 ca         1 N94      -0.082000
      3 C7           8.3780    -3.6320    41.9300 ca         1 N94      -0.111000
      4 C8           9.4100    -4.1370    42.7030 ca         1 N94       0.120000
      5 C12         12.1380    -3.3160    44.6600 c          1 N94       0.626700
      6 C15         13.6850    -3.2800    46.5500 ca         1 N94      -0.016000
      7 C16         14.6690    -3.7930    47.3980 ca         1 N94      -0.140000
      8 C17         15.1880    -5.0410    47.1640 ca         1 N94      -0.047000
      9 C18         14.7290    -5.8020    46.0790 ca         1 N94      -0.195000
     10 C19         13.7240    -5.2940    45.2260 ca         1 N94       0.095000
     11 C21         13.7780    -7.2220    44.0190 ca         1 N94       0.204900
     12 N22         14.7330    -7.8030    44.7380 nb         1 N94      -0.297000
     13 C23         15.2250    -7.1190    45.7620 ca         1 N94       0.422900
     14 C30          7.5920    -2.9630    37.5560 c5         1 N94      -0.088900
     15 C31          9.0870    -2.8150    37.8110 c5         1 N94       0.237800
     16 S2          10.4710    -0.7750    38.9550 s6         1 N94       1.305200
     17 O3          11.5320    -1.7630    38.8750 o          1 N94      -0.551000
     18 N4           9.9600    -0.5860    40.5500 nu         1 N94      -0.892100
     19 CL9          9.1780    -5.5960    43.5910 cl         1 N94      -0.181000
     20 C10         10.6380    -3.4850    42.7940 ca         1 N94      -0.049000
     21 N11         11.6790    -3.9860    43.5770 ns         1 N94      -0.159000
     22 O13         11.7160    -2.2160    44.9750 o          1 N94      -0.601100
     23 C14         13.2010    -3.9940    45.4730 ca         1 N94      -0.148600
     24 N20         13.2570    -6.0370    44.1880 nb         1 N94      -0.267000
     25 C25         10.8000    -2.3230    42.0510 ca         1 N94       0.181000
     26 F26         11.9830    -1.7150    42.0760 f          1 N94      -0.151000
     27 N27          9.1930    -1.4040    38.2100 n3         1 N94      -0.823500
     28 C28          7.9730    -0.6320    37.9620 c5         1 N94       0.237800
     29 C29          7.1670    -1.5780    37.0780 c5         1 N94      -0.088900
     30 H1           7.7430    -2.0180    40.6780 ha         1 N94       0.131000
     31 H2           7.4290    -4.1470    41.8840 ha         1 N94       0.135000
     32 H3          13.2870    -2.2940    46.7450 ha         1 N94       0.147000
     33 H4          15.0190    -3.2040    48.2340 ha         1 N94       0.125000
     34 H5          15.9480    -5.4220    47.8330 ha         1 N94       0.107000
     35 H6          13.3900    -7.8060    43.1910 h5         1 N94       0.048100
     36 H7           7.0790    -3.2160    38.4860 hc         1 N94       0.053700
     37 H8           7.3820    -3.7500    36.8330 hc         1 N94       0.053700
     38 H9           9.4420    -3.4860    38.5910 h1         1 N94       0.057450
     39 H10          9.6670    -3.0010    36.9040 h1         1 N94       0.057450
     40 H11         10.5010     0.1360    41.0160 hn         1 N94       0.501000
     41 H12         12.0280    -4.9420    43.4460 hn         1 N94       0.221000
     42 H13         16.5090    -8.6140    46.2080 hn         1 N94       0.505000
     43 H14         16.6510    -7.2520    47.2460 hn         1 N94       0.505000
     44 H15          8.1960     0.3120    37.4670 h1         1 N94       0.057450
     45 H16          7.4510    -0.4120    38.8980 h1         1 N94       0.057450
     46 H17          7.4460    -1.4370    36.0320 hc         1 N94       0.053700
     47 H18          6.0960    -1.4010    37.1660 hc         1 N94       0.053700
     48 N24         16.1860    -7.6980    46.4760 nv         1 N94      -1.067900
     49 O1          10.7080     0.5850    38.5110 o          1 N94      -0.551000
@<TRIPOS>BOND
     1     1     2 ar  
     2     1    18 1   
     3     1    25 ar  
     4     2     3 ar  
     5     2    30 1   
     6     3     4 ar  
     7     3    31 1   
     8     4    19 1   
     9     4    20 ar  
    10     5    21 1   
    11     5    22 2   
    12     5    23 1   
    13     6     7 ar  
    14     6    23 ar  
    15     6    32 1   
    16     7     8 ar  
    17     7    33 1   
    18     8     9 ar  
    19     8    34 1   
    20     9    10 ar  
    21     9    13 ar  
    22    10    23 ar  
    23    10    24 ar  
    24    11    12 ar  
    25    11    24 ar  
    26    11    35 1   
    27    12    13 ar  
    28    13    48 1   
    29    14    15 1   
    30    14    29 1   
    31    14    36 1   
    32    14    37 1   
    33    15    27 1   
    34    15    38 1   
    35    15    39 1   
    36    16    17 2   
    37    16    18 1   
    38    16    27 1   
    39    16    49 2   
    40    18    40 1   
    41    20    21 1   
    42    20    25 ar  
    43    21    41 1   
    44    25    26 1   
    45    27    28 1   
    46    28    29 1   
    47    28    44 1   
    48    28    45 1   
    49    29    46 1   
    50    29    47 1   
    51    42    48 1   
    52    43    48 1   
@<TRIPOS>SUBSTRUCTURE
     1 N94         1 TEMP              0 ****  ****    0 ROOT
