@<TRIPOS>MOLECULE
N94
   49    52     1     0     0
SMALL
No Charge or Current Charge


@<TRIPOS>ATOM
      1 C5           9.8730    -3.0640    40.8740 ca         1 N94       0.204000
      2 C6           8.7650    -3.9250    40.9890 ca         1 N94      -0.082000
      3 C7           8.7170    -4.8900    42.0090 ca         1 N94      -0.111000
      4 C8           9.7640    -4.9900    42.9370 ca         1 N94       0.120000
      5 C12         12.6030    -3.2860    44.5530 c          1 N94       0.626700
      6 C15         14.5780    -2.7290    45.9890 ca         1 N94      -0.016000
      7 C16         15.6510    -3.0330    46.8350 ca         1 N94      -0.140000
      8 C17         15.9120    -4.3580    47.1910 ca         1 N94      -0.047000
      9 C18         15.0900    -5.3940    46.7000 ca         1 N94      -0.195000
     10 C19         13.9920    -5.1010    45.8410 ca         1 N94       0.095000
     11 C21         13.5180    -7.3770    45.8120 ca         1 N94       0.204900
     12 N22         14.5360    -7.7390    46.6080 nb         1 N94      -0.297000
     13 C23         15.3140    -6.7470    47.0460 ca         1 N94       0.422900
     14 C30          7.2110    -0.3270    36.2230 c5         1 N94      -0.088900
     15 C31          8.1930    -1.5160    36.3010 c5         1 N94       0.237800
     16 S2           9.8780    -2.4100    38.2320 s6         1 N94       1.305200
     17 O3           9.4660    -3.7990    38.0330 o          1 N94      -0.551000
     18 N4           9.9220    -2.1090    39.8490 nu         1 N94      -0.892100
     19 Cl9          9.6660    -6.2160    44.2010 cl         1 N94      -0.181000
     20 C10         10.8660    -4.1130    42.8720 ca         1 N94      -0.049000
     21 N11         11.9050    -4.2450    43.8370 ns         1 N94      -0.159000
     22 O13         12.3010    -2.0980    44.4760 o          1 N94      -0.601100
     23 C14         13.7360    -3.7430    45.4720 ca         1 N94      -0.148600
     24 N20         13.2170    -6.1260    45.4150 nb         1 N94      -0.267000
     25 C25         10.9200    -3.1600    41.8250 ca         1 N94       0.181000
     26 F26         12.0090    -2.3660    41.6810 f          1 N94      -0.151000
     27 N27          8.6410    -1.3850    37.6930 n3         1 N94      -0.823500
     28 C28          7.3920    -1.3040    38.4740 c5         1 N94       0.237800
     29 C29          6.4770    -0.3990    37.5970 c5         1 N94      -0.088900
     30 H1           7.9430    -3.8530    40.2830 ha         1 N94       0.131000
     31 H2           7.8640    -5.5600    42.0810 ha         1 N94       0.135000
     32 H3          14.4090    -1.6850    45.7310 ha         1 N94       0.147000
     33 H4          16.2830    -2.2350    47.2170 ha         1 N94       0.125000
     34 H5          16.7480    -4.5640    47.8540 ha         1 N94       0.107000
     35 H6          12.8720    -8.1750    45.4480 h5         1 N94       0.048100
     36 H7           6.5270    -0.4060    35.3710 hc         1 N94       0.053700
     37 H8           7.7570     0.6180    36.1190 hc         1 N94       0.053700
     38 H9           7.6880    -2.4770    36.1210 h1         1 N94       0.057450
     39 H10          9.0150    -1.4150    35.5780 h1         1 N94       0.057450
     40 H11         10.7280    -1.4990    39.8770 hn         1 N94       0.501000
     41 H12         12.1740    -5.1980    44.0390 hn         1 N94       0.221000
     42 H13         16.5230    -8.1670    47.8730 hn         1 N94       0.505000
     43 H14         17.1330    -6.5580    47.9800 hn         1 N94       0.505000
     44 H15          7.5480    -0.8760    39.4740 h1         1 N94       0.057450
     45 H16          6.9400    -2.2980    38.6020 h1         1 N94       0.057450
     46 H17          6.3580     0.5990    38.0350 hc         1 N94       0.053700
     47 H18          5.4750    -0.8320    37.5040 hc         1 N94       0.053700
     48 N24         16.3320    -7.1680    47.8440 nv         1 N94      -1.067900
     49 O1          11.1480    -1.8880    37.7350 o          1 N94      -0.551000
@<TRIPOS>BOND
     1     1     2 ar  
     2     1    18 1   
     3     1    25 ar  
     4     2     3 ar  
     5     2    30 1   
     6     3     4 ar  
     7     3    31 1   
     8     4    19 1   
     9     4    20 ar  
    10     5    21 1   
    11     5    22 2   
    12     5    23 1   
    13     6     7 ar  
    14     6    23 ar  
    15     6    32 1   
    16     7     8 ar  
    17     7    33 1   
    18     8     9 ar  
    19     8    34 1   
    20     9    10 ar  
    21     9    13 ar  
    22    10    23 ar  
    23    10    24 ar  
    24    11    12 ar  
    25    11    24 ar  
    26    11    35 1   
    27    12    13 ar  
    28    13    48 1   
    29    14    15 1   
    30    14    29 1   
    31    14    36 1   
    32    14    37 1   
    33    15    27 1   
    34    15    38 1   
    35    15    39 1   
    36    16    17 2   
    37    16    18 1   
    38    16    27 1   
    39    16    49 2   
    40    18    40 1   
    41    20    21 1   
    42    20    25 ar  
    43    21    41 1   
    44    25    26 1   
    45    27    28 1   
    46    28    29 1   
    47    28    44 1   
    48    28    45 1   
    49    29    46 1   
    50    29    47 1   
    51    42    48 1   
    52    43    48 1   
@<TRIPOS>SUBSTRUCTURE
     1 N94         1 TEMP              0 ****  ****    0 ROOT
