@<TRIPOS>MOLECULE
N96
   26    27     1     0     0
SMALL
No Charge or Current Charge


@<TRIPOS>ATOM
      1 C1           5.3110     7.0230    41.3740 c3         1 N96      -0.079100
      2 C2           5.9570     8.3040    41.9460 c3         1 N96      -0.149400
      3 C3           7.2550     7.9970    42.7020 c          1 N96       0.602100
      4 C6           9.7010     8.2530    42.4630 cc         1 N96       0.543300
      5 C8          11.8840     8.5050    42.2000 cd         1 N96       0.321300
      6 C10         14.3430     8.8880    42.5190 c6         1 N96       0.155600
      7 C12         13.1430     7.6310    44.2100 c6         1 N96       0.244900
      8 C13         11.8840     7.9100    43.4360 cc         1 N96      -0.327300
      9 O4           7.2490     7.4830    43.8100 o          1 N96      -0.570100
     10 N5           8.4010     8.3730    42.0510 ns         1 N96      -0.475400
     11 N7          10.6330     8.7000    41.6400 nd         1 N96      -0.702000
     12 C9          13.1670     8.8980    41.5160 c6         1 N96      -0.137700
     13 O11         14.2900     7.6980    43.3350 os         1 N96      -0.446000
     14 S14         10.2690     7.5630    43.9750 ss         1 N96       0.069600
     15 H15          4.3840     7.2650    40.8410 hc         1 N96       0.047367
     16 H16          5.9900     6.5250    40.6700 hc         1 N96       0.047367
     17 H1           5.0690     6.3160    42.1770 hc         1 N96       0.047367
     18 H17          6.1540     8.9900    41.1130 hc         1 N96       0.063700
     19 H25          5.2460     8.7650    42.6420 hc         1 N96       0.063700
     20 H21         15.3000     8.9180    41.9800 h1         1 N96       0.049200
     21 H22         14.2920     9.7730    43.1720 h1         1 N96       0.049200
     22 H23         13.1100     6.6340    44.6720 h1         1 N96       0.054700
     23 H24         13.2700     8.3680    45.0170 h1         1 N96       0.054700
     24 H18          8.2660     8.7940    41.1450 hn         1 N96       0.339500
     25 H20         13.3800     8.1970    40.6990 hc         1 N96       0.067700
     26 H19         13.0770     9.8930    41.0600 hc         1 N96       0.067700
@<TRIPOS>BOND
     1     1     2 1   
     2     1    15 1   
     3     1    16 1   
     4     1    17 1   
     5     2     3 1   
     6     2    18 1   
     7     2    19 1   
     8     3     9 2   
     9     3    10 1   
    10     4    10 1   
    11     4    11 2   
    12     4    14 1   
    13     5     8 2   
    14     5    11 1   
    15     5    12 1   
    16     6    12 1   
    17     6    13 1   
    18     6    20 1   
    19     6    21 1   
    20     7     8 1   
    21     7    13 1   
    22     7    22 1   
    23     7    23 1   
    24     8    14 1   
    25    10    24 1   
    26    12    25 1   
    27    12    26 1   
@<TRIPOS>SUBSTRUCTURE
     1 N96         1 TEMP              0 ****  ****    0 ROOT
