@<TRIPOS>MOLECULE
N96
   26    27     1     0     0
SMALL
abcg2


@<TRIPOS>ATOM
      1 C1           5.0180     7.0900    42.0040 c3         1 N96      -0.079100
      2 C2           6.1010     8.0820    41.6160 c3         1 N96      -0.149400
      3 C3           7.4280     7.8030    42.2720 c          1 N96       0.602100
      4 C6           9.7970     8.3060    42.1260 cc         1 N96       0.543300
      5 C8          11.9580     8.6360    42.1500 cd         1 N96       0.321300
      6 C10         14.2850     9.0110    42.8110 c6         1 N96       0.155600
      7 C12         13.0720     7.4100    44.0360 c6         1 N96       0.244900
      8 C13         11.8820     7.8260    43.2310 cc         1 N96      -0.327300
      9 O4           7.5700     7.1080    43.2610 o          1 N96      -0.570100
     10 N5           8.5000     8.4110    41.6870 ns         1 N96      -0.475400
     11 N7          10.7710     8.9020    41.5210 nd         1 N96      -0.702000
     12 C9          13.2640     9.1940    41.6930 c6         1 N96      -0.137700
     13 O11         14.2530     7.6950    43.3280 os         1 N96      -0.446000
     14 S14         10.2420     7.3650    43.5150 ss         1 N96       0.069600
     15 H15          4.0840     7.3560    41.5130 hc         1 N96       0.047367
     16 H16          5.2770     6.0760    41.7010 hc         1 N96       0.047367
     17 H1           4.8400     7.0870    43.0780 hc         1 N96       0.047367
     18 H17          6.2320     8.1050    40.5310 hc         1 N96       0.063700
     19 H25          5.8040     9.0970    41.9000 hc         1 N96       0.063700
     20 H21         15.2960     9.1810    42.4430 h1         1 N96       0.049200
     21 H22         14.0930     9.7420    43.6080 h1         1 N96       0.049200
     22 H23         13.0660     6.3340    44.2280 h1         1 N96       0.054700
     23 H24         13.0660     7.9130    45.0130 h1         1 N96       0.054700
     24 H18          8.3650     8.9830    40.8640 hn         1 N96       0.339500
     25 H20         13.5950     8.6940    40.7780 hc         1 N96       0.067700
     26 H19         13.1680    10.2560    41.4560 hc         1 N96       0.067700
@<TRIPOS>BOND
     1     1     2 1   
     2     1    15 1   
     3     1    16 1   
     4     1    17 1   
     5     2     3 1   
     6     2    18 1   
     7     2    19 1   
     8     3     9 2   
     9     3    10 1   
    10     4    10 1   
    11     4    11 2   
    12     4    14 1   
    13     5     8 2   
    14     5    11 1   
    15     5    12 1   
    16     6    12 1   
    17     6    13 1   
    18     6    20 1   
    19     6    21 1   
    20     7     8 1   
    21     7    13 1   
    22     7    22 1   
    23     7    23 1   
    24     8    14 1   
    25    10    24 1   
    26    12    25 1   
    27    12    26 1   
@<TRIPOS>SUBSTRUCTURE
     1 N96         1 TEMP              0 ****  ****    0 ROOT
