@<TRIPOS>MOLECULE
N97
   62    66     1     0     0
SMALL
No Charge or Current Charge


@<TRIPOS>ATOM
      1 C4          -7.6270   -15.2260    76.4880 ca         1 N97      -0.305500
      2 C5          -7.1080   -14.5120    75.3920 ca         1 N97       0.254000
      3 C6          -7.3910   -14.9280    74.0790 ca         1 N97      -0.150000
      4 C13         -3.4550   -15.7850    77.5060 ca         1 N97       0.168000
      5 C15         -3.1740   -18.1630    77.0730 ca         1 N97       0.114000
      6 C17         -5.2950   -17.3220    77.9240 ca         1 N97      -0.091000
      7 C20         -0.2720   -15.8900    77.1700 c          1 N97       0.642300
      8 C22          0.9920   -15.8950    76.3860 cc         1 N97      -0.286000
      9 C28          2.5710   -16.3690    74.6850 ca         1 N97      -0.349000
     10 C1          -8.1930   -16.0610    73.8520 ca         1 N97      -0.072000
     11 C12         -4.7920   -16.0060    77.9240 ca         1 N97       0.233000
     12 C14         -2.6310   -16.8620    77.0960 ca         1 N97      -0.035000
     13 C16         -4.4930   -18.3910    77.4930 ca         1 N97      -0.095000
     14 C2          -8.7090   -16.7780    74.9440 ca         1 N97       0.130000
     15 C23          1.2920   -16.6080    75.1530 ca         1 N97       0.188800
     16 C25          0.9360   -18.0310    73.3980 ca         1 N97       0.191900
     17 C27          2.9840   -17.0110    73.5050 ca         1 N97       0.447900
     18 C3          -8.4300   -16.3680    76.2590 ca         1 N97      -0.026000
     19 C30          2.0910   -15.1510    76.8030 cd         1 N97      -0.078400
     20 C32          4.9730   -15.6230    72.7530 c6         1 N97       0.237500
     21 C34          4.0880   -14.5620    72.0430 c6         1 N97      -0.091400
     22 C35          4.8770   -13.2530    71.7840 c6         1 N97      -0.072900
     23 C36          6.1670   -13.5270    70.9690 c6         1 N97       0.161500
     24 C38          7.0510   -14.5890    71.6710 c6         1 N97      -0.072900
     25 C39          6.2570   -15.8960    71.9270 c6         1 N97      -0.091400
     26 F42         -9.4770   -17.8680    74.7280 f          1 N97      -0.171000
     27 F7          -6.3160   -13.4320    75.5730 f          1 N97      -0.153000
     28 N11         -5.5930   -14.9200    78.3130 nu         1 N97      -0.913100
     29 N19         -1.2890   -16.6770    76.6610 ns         1 N97      -0.163000
     30 N24          0.4530   -17.4440    74.5140 nb         1 N97      -0.241000
     31 N26          2.1650   -17.8590    72.8660 nb         1 N97      -0.290000
     32 N31          4.2360   -16.8850    72.9220 nu         1 N97      -0.922100
     33 N40          6.9230   -12.2800    70.7640 n8         1 N97      -1.002200
     34 O10         -7.8350   -15.6390    79.1300 o          1 N97      -0.529000
     35 O21         -0.3880   -15.2520    78.2100 o          1 N97      -0.578100
     36 O9          -7.3900   -13.2620    78.2820 o          1 N97      -0.529000
     37 S29          3.5090   -15.2840    75.7310 ss         1 N97       0.126400
     38 S8          -7.2500   -14.7130    78.1580 sy         1 N97       1.198600
     39 Cl18        -2.2010   -19.5320    76.5350 cl         1 N97      -0.184000
     40 H1          -6.9830   -14.3710    73.2400 ha         1 N97       0.142000
     41 H2          -6.3080   -17.5290    78.2510 ha         1 N97       0.131000
     42 H3          -8.4130   -16.3850    72.8380 ha         1 N97       0.141000
     43 H4          -4.8950   -19.4020    77.4850 ha         1 N97       0.138000
     44 H5           0.2670   -18.7140    72.8770 h5         1 N97       0.051100
     45 H6          -8.8410   -16.9430    77.0880 ha         1 N97       0.168000
     46 H7           2.1650   -14.5220    77.6860 h4         1 N97       0.244000
     47 H8           5.2880   -15.2250    73.7280 h1         1 N97       0.065700
     48 H9           3.7160   -14.9620    71.0890 hc         1 N97       0.051950
     49 H10          3.2030   -14.3360    72.6520 hc         1 N97       0.051950
     50 H11          4.2360   -12.5390    71.2470 hc         1 N97       0.054450
     51 H12          5.1320   -12.7840    72.7440 hc         1 N97       0.054450
     52 H13          5.8850   -13.9010    69.9730 h1         1 N97       0.015700
     53 H14          7.4250   -14.1950    72.6260 hc         1 N97       0.054450
     54 H15          7.9340   -14.8110    71.0560 hc         1 N97       0.054450
     55 H16          6.8960   -16.6160    72.4580 hc         1 N97       0.051950
     56 H17          5.9950   -16.3580    70.9640 hc         1 N97       0.051950
     57 H18         -5.2050   -13.9940    78.1840 hn         1 N97       0.514000
     58 H19         -1.0300   -17.2200    75.8490 hn         1 N97       0.214000
     59 H20          4.3840   -17.5850    72.1960 hn         1 N97       0.507000
     60 H21          7.7170   -12.4750    70.1420 hn         1 N97       0.397500
     61 H22          6.3460   -11.6320    70.2140 hn         1 N97       0.397500
     62 F41         -2.9920   -14.5120    77.4390 f          1 N97      -0.157000
@<TRIPOS>BOND
     1     1     2 ar  
     2     1    18 ar  
     3     1    38 1   
     4     2     3 ar  
     5     2    27 1   
     6     3    10 ar  
     7     3    40 1   
     8     4    11 ar  
     9     4    12 ar  
    10     4    62 1   
    11     5    12 ar  
    12     5    13 ar  
    13     5    39 1   
    14     6    11 ar  
    15     6    13 ar  
    16     6    41 1   
    17     7     8 1   
    18     7    29 1   
    19     7    35 2   
    20     8    15 1   
    21     8    19 2   
    22     9    15 ar  
    23     9    17 ar  
    24     9    37 1   
    25    10    14 ar  
    26    10    42 1   
    27    11    28 1   
    28    12    29 1   
    29    13    43 1   
    30    14    18 ar  
    31    14    26 1   
    32    15    30 ar  
    33    16    30 ar  
    34    16    31 ar  
    35    16    44 1   
    36    17    31 ar  
    37    17    32 1   
    38    18    45 1   
    39    19    37 1   
    40    19    46 1   
    41    20    21 1   
    42    20    25 1   
    43    20    32 1   
    44    20    47 1   
    45    21    22 1   
    46    21    48 1   
    47    21    49 1   
    48    22    23 1   
    49    22    50 1   
    50    22    51 1   
    51    23    24 1   
    52    23    33 1   
    53    23    52 1   
    54    24    25 1   
    55    24    53 1   
    56    24    54 1   
    57    25    55 1   
    58    25    56 1   
    59    28    38 1   
    60    28    57 1   
    61    29    58 1   
    62    32    59 1   
    63    33    60 1   
    64    33    61 1   
    65    34    38 2   
    66    36    38 2   
@<TRIPOS>SUBSTRUCTURE
     1 N97         1 TEMP              0 ****  ****    0 ROOT
