@<TRIPOS>MOLECULE
N97
   62    66     1     0     0
SMALL
abcg2


@<TRIPOS>ATOM
      1 C4          -8.0700   -15.4120    77.5250 ca         1 N97      -0.305500
      2 C5          -9.2440   -15.6400    76.8110 ca         1 N97       0.254000
      3 C6         -10.1470   -16.6090    77.2030 ca         1 N97      -0.150000
      4 C13         -4.0850   -15.4960    75.1770 ca         1 N97       0.168000
      5 C15         -3.5110   -17.8030    75.2940 ca         1 N97       0.114000
      6 C17         -5.7690   -17.1120    75.7020 ca         1 N97      -0.091000
      7 C20         -0.9550   -15.3880    75.4270 c          1 N97       0.642300
      8 C22          0.4320   -15.3220    74.8970 cc         1 N97      -0.286000
      9 C28          2.3250   -15.7850    73.5560 ca         1 N97      -0.349000
     10 C1          -9.8760   -17.3750    78.3310 ca         1 N97      -0.072000
     11 C12         -5.4090   -15.7860    75.4900 ca         1 N97       0.233000
     12 C14         -3.1090   -16.4820    75.0630 ca         1 N97      -0.035000
     13 C16         -4.8230   -18.1210    75.6120 ca         1 N97      -0.095000
     14 C2          -8.7070   -17.1420    79.0330 ca         1 N97       0.130000
     15 C23          0.9610   -16.0390    73.7630 ca         1 N97       0.188800
     16 C25          0.9310   -17.4190    71.9760 ca         1 N97       0.191900
     17 C27          2.9650   -16.4390    72.4700 ca         1 N97       0.447900
     18 C3          -7.7970   -16.1750    78.6570 ca         1 N97      -0.026000
     19 C30          1.3920   -14.5530    75.4890 cd         1 N97      -0.078400
     20 C32          5.3090   -15.5350    72.7370 c6         1 N97       0.237500
     21 C34          5.3440   -14.1220    72.1460 c6         1 N97      -0.091400
     22 C35          6.4850   -13.3050    72.7490 c6         1 N97      -0.072900
     23 C36          7.8320   -13.9960    72.5520 c6         1 N97       0.161500
     24 C38          7.7940   -15.4060    73.1390 c6         1 N97      -0.072900
     25 C39          6.6550   -16.2360    72.5500 c6         1 N97      -0.091400
     26 F42         -8.4370   -17.8920    80.1240 f          1 N97      -0.171000
     27 F7          -9.5100   -14.9150    75.7110 f          1 N97      -0.153000
     28 N11         -6.3770   -14.7490    75.5550 nu         1 N97      -0.913100
     29 N19         -1.7930   -16.1740    74.6920 ns         1 N97      -0.163000
     30 N24          0.2490   -16.8720    72.9710 nb         1 N97      -0.241000
     31 N26          2.2160   -17.2480    71.6880 nb         1 N97      -0.290000
     32 N31          4.2610   -16.3540    72.1420 nu         1 N97      -0.922100
     33 N40          8.8970   -13.2160    73.1980 n8         1 N97      -1.002200
     34 O10         -5.8420   -14.1940    77.9940 o          1 N97      -0.529000
     35 O21         -1.2970   -14.8000    76.4480 o          1 N97      -0.578100
     36 O9          -7.5850   -12.9470    76.7260 o          1 N97      -0.529000
     37 S29          2.9290   -14.6610    74.7450 ss         1 N97       0.126400
     38 S8          -6.9020   -14.1810    77.0180 sy         1 N97       1.198600
     39 CL18        -2.3310   -19.0770    75.1680 cl         1 N97      -0.184000
     40 H1         -11.0480   -16.7610    76.6250 ha         1 N97       0.142000
     41 H2          -6.7990   -17.3530    75.9220 ha         1 N97       0.131000
     42 H3         -10.5620   -18.1450    78.6580 ha         1 N97       0.141000
     43 H4          -5.1020   -19.1520    75.7750 ha         1 N97       0.138000
     44 H5           0.3800   -18.0850    71.3190 h5         1 N97       0.051100
     45 H6          -6.8870   -16.0210    79.2180 ha         1 N97       0.168000
     46 H7           1.2630   -13.9210    76.3530 h4         1 N97       0.244000
     47 H8           5.1240   -15.4730    73.8110 h1         1 N97       0.065700
     48 H9           5.4740   -14.2080    71.0620 hc         1 N97       0.051950
     49 H10          4.3870   -13.6240    72.3150 hc         1 N97       0.051950
     50 H11          6.5090   -12.3090    72.2990 hc         1 N97       0.054450
     51 H12          6.3170   -13.1680    73.8230 hc         1 N97       0.054450
     52 H13          8.0020   -14.0910    71.4680 h1         1 N97       0.015700
     53 H14          7.6710   -15.3270    74.2240 hc         1 N97       0.054450
     54 H15          8.7490   -15.9090    72.9610 hc         1 N97       0.054450
     55 H16          6.6200   -17.2220    73.0170 hc         1 N97       0.051950
     56 H17          6.8220   -16.3900    71.4780 hc         1 N97       0.051950
     57 H18         -6.2800   -13.9900    74.8880 hn         1 N97       0.514000
     58 H19         -1.3580   -16.7040    73.9280 hn         1 N97       0.214000
     59 H20          4.5040   -16.8570    71.2990 hn         1 N97       0.507000
     60 H21          9.7950   -13.6570    73.0240 hn         1 N97       0.397500
     61 H22          8.9500   -12.2950    72.7720 hn         1 N97       0.397500
     62 F41         -3.7520   -14.2210    74.9210 f          1 N97      -0.157000
@<TRIPOS>BOND
     1     1     2 ar  
     2     1    18 ar  
     3     1    38 1   
     4     2     3 ar  
     5     2    27 1   
     6     3    10 ar  
     7     3    40 1   
     8     4    11 ar  
     9     4    12 ar  
    10     4    62 1   
    11     5    12 ar  
    12     5    13 ar  
    13     5    39 1   
    14     6    11 ar  
    15     6    13 ar  
    16     6    41 1   
    17     7     8 1   
    18     7    29 1   
    19     7    35 2   
    20     8    15 1   
    21     8    19 2   
    22     9    15 ar  
    23     9    17 ar  
    24     9    37 1   
    25    10    14 ar  
    26    10    42 1   
    27    11    28 1   
    28    12    29 1   
    29    13    43 1   
    30    14    18 ar  
    31    14    26 1   
    32    15    30 ar  
    33    16    30 ar  
    34    16    31 ar  
    35    16    44 1   
    36    17    31 ar  
    37    17    32 1   
    38    18    45 1   
    39    19    37 1   
    40    19    46 1   
    41    20    21 1   
    42    20    25 1   
    43    20    32 1   
    44    20    47 1   
    45    21    22 1   
    46    21    48 1   
    47    21    49 1   
    48    22    23 1   
    49    22    50 1   
    50    22    51 1   
    51    23    24 1   
    52    23    33 1   
    53    23    52 1   
    54    24    25 1   
    55    24    53 1   
    56    24    54 1   
    57    25    55 1   
    58    25    56 1   
    59    28    38 1   
    60    28    57 1   
    61    29    58 1   
    62    32    59 1   
    63    33    60 1   
    64    33    61 1   
    65    34    38 2   
    66    36    38 2   
@<TRIPOS>SUBSTRUCTURE
     1 N97         1 TEMP              0 ****  ****    0 ROOT
