@<TRIPOS>MOLECULE
N98
   43    47     1     0     0
SMALL
bcc


@<TRIPOS>ATOM
      1 C10         -2.6960   -22.8710    29.4030 cc         1 N98      -0.302600
      2 C11         -2.9950   -23.9880    28.6110 cc         1 N98       0.437200
      3 C14         -2.5940   -24.2450    27.2260 ca         1 N98      -0.106900
      4 C17         -1.8200   -24.7370    24.5840 ca         1 N98      -0.117000
      5 C24         -3.4240   -20.1410    35.2320 ca         1 N98      -0.127000
      6 C21         -4.4710   -22.7750    35.2450 ca         1 N98      -0.094000
      7 C01         -5.9820   -28.1870    32.3760 c3         1 N98       0.129700
      8 C05         -4.5760   -24.9230    31.5160 cc         1 N98      -0.015900
      9 C06         -4.5930   -24.2480    32.6960 cd         1 N98      -0.241300
     10 C07         -3.9490   -22.9790    32.7990 cd         1 N98       0.511800
     11 C09         -3.2930   -23.1310    30.6210 cd         1 N98       0.371500
     12 C15         -1.8470   -23.3040    26.5170 ca         1 N98      -0.100500
     13 C16         -1.4640   -23.5480    25.2060 ca         1 N98      -0.136000
     14 C18         -2.5640   -25.6800    25.2820 ca         1 N98      -0.136000
     15 C19         -2.9490   -25.4370    26.5910 ca         1 N98      -0.100500
     16 C20         -3.9610   -22.2130    34.0580 ca         1 N98      -0.163500
     17 C22         -4.4360   -22.0030    36.3750 ca         1 N98       0.041100
     18 C23         -3.9240   -20.7150    36.3760 ca         1 N98       0.075100
     19 C25         -3.4500   -20.9150    34.0720 ca         1 N98      -0.077000
     20 C27         -4.5120   -21.2260    38.4580 c5         1 N98       0.328200
     21 N08         -3.3280   -22.4560    31.7710 nd         1 N98      -0.643000
     22 N12         -3.7290   -24.8860    29.2680 nd         1 N98      -0.547100
     23 N13         -3.9120   -24.3650    30.4730 na         1 N98       0.085200
     24 O02         -5.2510   -26.9560    32.3820 os         1 N98      -0.411900
     25 O04         -5.9290   -26.4650    30.3050 o          1 N98      -0.478000
     26 O26         -4.0210   -20.1910    37.6130 os         1 N98      -0.315900
     27 O28         -4.8700   -22.3150    37.6180 os         1 N98      -0.320900
     28 H1          -2.1170   -21.9990    29.1510 ha         1 N98       0.179000
     29 H2          -1.5200   -24.9280    23.5620 ha         1 N98       0.130000
     30 H3          -3.0270   -19.1350    35.2240 ha         1 N98       0.157000
     31 H4          -4.8730   -23.7770    35.2930 ha         1 N98       0.151000
     32 H5          -5.8030   -28.6400    33.3460 h1         1 N98       0.055033
     33 H6          -7.0490   -28.0100    32.2450 h1         1 N98       0.055033
     34 H7          -5.6230   -28.8490    31.5900 h1         1 N98       0.055033
     35 H8          -5.1280   -24.6780    33.5260 ha         1 N98       0.169000
     36 H9          -1.5590   -22.3710    26.9840 ha         1 N98       0.141500
     37 H10         -0.8850   -22.8060    24.6710 ha         1 N98       0.131500
     38 H11         -2.8460   -26.6100    24.8050 ha         1 N98       0.131500
     39 H12         -3.5280   -26.1790    27.1250 ha         1 N98       0.141500
     40 H13         -3.0620   -20.4930    33.1570 ha         1 N98       0.164000
     41 H14         -5.3900   -20.8730    39.0010 h2         1 N98       0.066700
     42 H15         -3.7280   -21.5340    39.1570 h2         1 N98       0.066700
     43 C03         -5.3240   -26.2020    31.3070 c          1 N98       0.658700
@<TRIPOS>BOND
     1     1     2 1   
     2     1    11 2   
     3     1    28 1   
     4     2     3 1   
     5     2    22 2   
     6     3    12 ar  
     7     3    15 ar  
     8     4    13 ar  
     9     4    14 ar  
    10     4    29 1   
    11     5    18 ar  
    12     5    19 ar  
    13     5    30 1   
    14     6    16 ar  
    15     6    17 ar  
    16     6    31 1   
    17     7    24 1   
    18     7    32 1   
    19     7    33 1   
    20     7    34 1   
    21     8     9 2   
    22     8    23 1   
    23     8    43 1   
    24     9    10 1   
    25     9    35 1   
    26    10    16 1   
    27    10    21 2   
    28    11    21 1   
    29    11    23 1   
    30    12    13 ar  
    31    12    36 1   
    32    13    37 1   
    33    14    15 ar  
    34    14    38 1   
    35    15    39 1   
    36    16    19 ar  
    37    17    18 ar  
    38    17    27 1   
    39    18    26 1   
    40    19    40 1   
    41    20    26 1   
    42    20    27 1   
    43    20    41 1   
    44    20    42 1   
    45    22    23 1   
    46    24    43 1   
    47    25    43 2   
@<TRIPOS>SUBSTRUCTURE
     1 N98         1 TEMP              0 ****  ****    0 ROOT
