@<TRIPOS>MOLECULE
N98
   43    47     1     0     0
SMALL
No Charge or Current Charge


@<TRIPOS>ATOM
      1 C10         -2.7130   -23.0080    29.4300 cc         1 N98      -0.352600
      2 C11         -2.9690   -24.1030    28.5820 cc         1 N98       0.437200
      3 C14         -2.5020   -24.2210    27.1860 ca         1 N98      -0.106900
      4 C17         -1.6170   -24.4700    24.5010 ca         1 N98      -0.099000
      5 C24         -4.0250   -20.0500    35.1000 ca         1 N98      -0.109000
      6 C21         -3.9500   -22.8810    35.2190 ca         1 N98      -0.076000
      7 C01         -6.6510   -28.0340    32.7300 c3         1 N98       0.152900
      8 C05         -4.6230   -25.1380    31.4930 cc         1 N98      -0.066600
      9 C06         -4.6200   -24.3200    32.6340 cd         1 N98      -0.158000
     10 C07         -3.9510   -23.0290    32.7060 cd         1 N98       0.446500
     11 C09         -3.3120   -23.3090    30.5950 cd         1 N98       0.371500
     12 C15         -1.7340   -23.2000    26.5760 ca         1 N98      -0.082500
     13 C16         -1.2960   -23.3250    25.2460 ca         1 N98      -0.118000
     14 C18         -2.3770   -25.4910    25.0890 ca         1 N98      -0.118000
     15 C19         -2.8160   -25.3700    26.4190 ca         1 N98      -0.082500
     16 C20         -4.0020   -22.2360    33.9550 ca         1 N98      -0.163500
     17 C22         -3.9630   -22.0940    36.3770 ca         1 N98       0.041100
     18 C23         -4.0020   -20.7310    36.3200 ca         1 N98       0.075100
     19 C25         -4.0180   -20.8120    33.9120 ca         1 N98      -0.059000
     20 C27         -4.0260   -21.3240    38.4490 c5         1 N98       0.374600
     21 N08         -3.2540   -22.4420    31.6540 nd         1 N98      -0.643000
     22 N12         -3.6910   -25.0530    29.1690 nd         1 N98      -0.547100
     23 N13         -3.9110   -24.5520    30.4490 na         1 N98       0.135900
     24 O02         -5.9460   -26.7800    32.6490 os         1 N98      -0.435100
     25 O04         -5.3490   -27.1920    30.4910 o          1 N98      -0.429000
     26 O26         -3.9840   -20.1590    37.5510 os         1 N98      -0.339100
     27 O28         -3.9100   -22.5570    37.6520 os         1 N98      -0.344100
     28 H1          -2.1550   -22.1130    29.2000 ha         1 N98       0.229000
     29 H2          -1.2770   -24.5650    23.4720 ha         1 N98       0.112000
     30 H3          -4.0420   -18.9630    35.0700 ha         1 N98       0.139000
     31 H4          -3.8880   -23.9630    35.3070 ha         1 N98       0.133000
     32 H5          -7.0960   -28.1590    33.7260 h1         1 N98       0.055033
     33 H6          -7.4610   -28.0770    31.9900 h1         1 N98       0.055033
     34 H7          -5.9730   -28.8790    32.5540 h1         1 N98       0.055033
     35 H8          -5.1530   -24.6500    33.5170 ha         1 N98       0.151000
     36 H9          -1.4660   -22.2990    27.1210 ha         1 N98       0.123500
     37 H10         -0.7070   -22.5310    24.7920 ha         1 N98       0.113500
     38 H11         -2.6270   -26.3810    24.5150 ha         1 N98       0.113500
     39 H12         -3.4040   -26.1780    26.8480 ha         1 N98       0.123500
     40 H13         -4.0350   -20.2910    32.9560 ha         1 N98       0.146000
     41 H14         -4.9850   -21.3310    38.9800 h2         1 N98       0.066700
     42 H15         -3.1990   -21.2680    39.1670 h2         1 N98       0.066700
     43 C03         -5.3220   -26.4540    31.4670 c          1 N98       0.609700
@<TRIPOS>BOND
     1     1     2 1   
     2     1    11 2   
     3     1    28 1   
     4     2     3 1   
     5     2    22 2   
     6     3    12 ar  
     7     3    15 ar  
     8     4    13 ar  
     9     4    14 ar  
    10     4    29 1   
    11     5    18 ar  
    12     5    19 ar  
    13     5    30 1   
    14     6    16 ar  
    15     6    17 ar  
    16     6    31 1   
    17     7    24 1   
    18     7    32 1   
    19     7    33 1   
    20     7    34 1   
    21     8     9 2   
    22     8    23 1   
    23     8    43 1   
    24     9    10 1   
    25     9    35 1   
    26    10    16 1   
    27    10    21 2   
    28    11    21 1   
    29    11    23 1   
    30    12    13 ar  
    31    12    36 1   
    32    13    37 1   
    33    14    15 ar  
    34    14    38 1   
    35    15    39 1   
    36    16    19 ar  
    37    17    18 ar  
    38    17    27 1   
    39    18    26 1   
    40    19    40 1   
    41    20    26 1   
    42    20    27 1   
    43    20    41 1   
    44    20    42 1   
    45    22    23 1   
    46    24    43 1   
    47    25    43 2   
@<TRIPOS>SUBSTRUCTURE
     1 N98         1 TEMP              0 ****  ****    0 ROOT
