@<TRIPOS>MOLECULE
N99
   23    24     1     0     0
SMALL
No Charge or Current Charge


@<TRIPOS>ATOM
      1 C01          1.1860   -18.6590   -52.1410 cc         1 N99      -0.069000
      2 N02          1.0390   -20.0430   -52.2720 na         1 N99       0.315400
      3 C03          0.7860   -20.8330   -51.1820 cc         1 N99      -0.070000
      4 C04          0.6500   -20.3550   -49.8580 cc         1 N99      -0.104000
      5 C05          0.7870   -18.9980   -49.6810 cd         1 N99      -0.085000
      6 C06          1.0560   -18.1630   -50.8360 cd         1 N99      -0.169000
      7 C07          0.7100   -22.0900   -51.6960 cd         1 N99      -0.393600
      8 C08          0.9310   -21.9490   -53.0950 cd         1 N99       0.458200
      9 N09          0.9410   -22.9690   -54.0040 ns         1 N99      -0.397400
     10 C10          0.7530   -24.3170   -53.8250 c          1 N99       0.605300
     11 C11          0.8360   -25.1380   -55.0720 ce         1 N99      -0.270200
     12 C12          1.0740   -24.6930   -56.3350 c2         1 N99      -0.267000
     13 O13          0.5320   -24.8410   -52.7440 o          1 N99      -0.575100
     14 N14          1.1360   -20.6980   -53.4750 nc         1 N99      -0.646100
     15 H1           1.3860   -18.0830   -53.0340 h4         1 N99       0.157000
     16 H2           0.4490   -21.0350   -49.0360 ha         1 N99       0.135000
     17 H3           0.6950   -18.5610   -48.6910 ha         1 N99       0.123000
     18 H4           1.1620   -17.0940   -50.6830 ha         1 N99       0.132000
     19 H5           0.5190   -23.0020   -51.1420 ha         1 N99       0.242000
     20 H6           1.1110   -22.7080   -54.9600 hn         1 N99       0.333500
     21 H7           0.6830   -26.2030   -54.8970 ha         1 N99       0.204000
     22 H9           1.1130   -25.3890   -57.1760 ha         1 N99       0.171000
     23 H10          1.2360   -23.6450   -56.5880 ha         1 N99       0.171000
@<TRIPOS>BOND
     1     1     2 1   
     2     1     6 2   
     3     1    15 1   
     4     2     3 1   
     5     2    14 1   
     6     3     4 1   
     7     3     7 2   
     8     4     5 2   
     9     4    16 1   
    10     5     6 1   
    11     5    17 1   
    12     6    18 1   
    13     7     8 1   
    14     7    19 1   
    15     8     9 1   
    16     8    14 2   
    17     9    10 1   
    18     9    20 1   
    19    10    11 1   
    20    10    13 2   
    21    11    12 2   
    22    11    21 1   
    23    12    22 1   
    24    12    23 1   
@<TRIPOS>SUBSTRUCTURE
     1 N99         1 TEMP              0 ****  ****    0 ROOT
