@<TRIPOS>MOLECULE
N99
   23    24     1     0     0
SMALL
abcg2


@<TRIPOS>ATOM
      1 C01          1.2930   -18.7240   -52.0720 cc         1 N99      -0.069000
      2 N02          1.1240   -20.0690   -52.1920 na         1 N99       0.315400
      3 C03          0.7400   -20.8850   -51.1330 cc         1 N99      -0.070000
      4 C04          0.5180   -20.2790   -49.8790 cc         1 N99      -0.104000
      5 C05          0.6850   -18.9260   -49.7480 cd         1 N99      -0.085000
      6 C06          1.0780   -18.1380   -50.8600 cd         1 N99      -0.169000
      7 C07          0.6740   -22.1790   -51.6510 cd         1 N99      -0.393600
      8 C08          1.0280   -22.0350   -52.9990 cd         1 N99       0.458200
      9 N09          1.1250   -22.9850   -54.0050 ns         1 N99      -0.397400
     10 C10          0.9050   -24.3250   -53.8830 c          1 N99       0.605300
     11 C11          0.9840   -25.1250   -55.1330 ce         1 N99      -0.270200
     12 C12          0.7800   -24.6750   -56.3670 c2         1 N99      -0.267000
     13 O13          0.6490   -24.8670   -52.8100 o          1 N99      -0.575100
     14 N14          1.3040   -20.7640   -53.3370 nc         1 N99      -0.646100
     15 H1           1.5930   -18.2030   -52.9680 h4         1 N99       0.157000
     16 H2           0.2190   -20.8980   -49.0440 ha         1 N99       0.135000
     17 H3           0.5170   -18.4490   -48.7920 ha         1 N99       0.123000
     18 H4           1.2100   -17.0710   -50.7630 ha         1 N99       0.132000
     19 H5           0.4120   -23.0780   -51.1290 ha         1 N99       0.242000
     20 H6           1.4010   -22.6260   -54.9070 hn         1 N99       0.333500
     21 H7           1.1620   -26.1790   -54.9510 ha         1 N99       0.204000
     22 H9           0.8150   -25.3490   -57.2130 ha         1 N99       0.171000
     23 H10          0.5540   -23.6380   -56.5860 ha         1 N99       0.171000
@<TRIPOS>BOND
     1     1     2 1   
     2     1     6 2   
     3     1    15 1   
     4     2     3 1   
     5     2    14 1   
     6     3     4 1   
     7     3     7 2   
     8     4     5 2   
     9     4    16 1   
    10     5     6 1   
    11     5    17 1   
    12     6    18 1   
    13     7     8 1   
    14     7    19 1   
    15     8     9 1   
    16     8    14 2   
    17     9    10 1   
    18     9    20 1   
    19    10    11 1   
    20    10    13 2   
    21    11    12 2   
    22    11    21 1   
    23    12    22 1   
    24    12    23 1   
@<TRIPOS>SUBSTRUCTURE
     1 N99         1 TEMP              0 ****  ****    0 ROOT
