@<TRIPOS>MOLECULE
N9B
   45    47     1     0     0
SMALL
bcc


@<TRIPOS>ATOM
      1 C11          6.5110    57.2610    87.4570 ca         1 N9B      -0.091800
      2 C12          6.0270    56.0340    88.1300 cc         1 N9B      -0.045200
      3 C13          5.6980    56.0770    89.4570 cd         1 N9B      -0.040000
      4 C14          5.2600    55.0740    90.3530 cd         1 N9B      -0.233000
      5 C15          5.1550    53.7220    90.2070 cc         1 N9B       0.074900
      6 C16          4.3800    53.4480    92.4420 c3         1 N9B       0.117700
      7 C17          5.4610    52.9380    88.9970 c          1 N9B       0.576500
      8 O3           4.7590    52.9140    91.1870 os         1 N9B      -0.285900
      9 C18          5.5970    53.5860    87.7130 cd         1 N9B      -0.252200
     10 C19          5.8560    54.8620    87.3090 cc         1 N9B       0.057000
     11 C1           5.9240    55.1040    85.8470 ce         1 N9B      -0.100200
     12 C            6.4910    54.2630    84.9850 c2         1 N9B      -0.182000
     13 C3           6.1420    57.4920    86.1310 ca         1 N9B      -0.025300
     14 C2           5.3450    56.4250    85.4380 c6         1 N9B       0.003100
     15 C9           7.3480    58.2070    88.0740 ca         1 N9B       0.131100
     16 O2           7.7950    58.0420    89.3460 os         1 N9B      -0.339900
     17 C10          8.9800    57.2650    89.4530 c3         1 N9B       0.128700
     18 C7           7.7600    59.3500    87.3970 ca         1 N9B       0.043100
     19 O1           8.6110    60.2240    87.9940 os         1 N9B      -0.314900
     20 C8           7.9670    61.2650    88.7160 c3         1 N9B       0.127700
     21 C5           7.3300    59.5870    86.0840 ca         1 N9B       0.140100
     22 C4           6.5340    58.6380    85.4540 ca         1 N9B      -0.214000
     23 O            7.7590    60.7260    85.5230 os         1 N9B      -0.298900
     24 C6           7.3690    61.0110    84.1940 c3         1 N9B       0.121700
     25 H1           5.7580    57.0450    89.9310 ha         1 N9B       0.142000
     26 H3           5.0100    55.4740    91.3270 ha         1 N9B       0.129000
     27 H4           4.0750    52.6020    93.0520 h1         1 N9B       0.046033
     28 H5           5.2120    53.9590    92.9330 h1         1 N9B       0.046033
     29 H6           3.5400    54.1410    92.3500 h1         1 N9B       0.046033
     30 H7           5.4960    52.8630    86.9100 ha         1 N9B       0.146000
     31 H9           6.9670    53.3440    85.3010 ha         1 N9B       0.122500
     32 H10          6.5080    54.4820    83.9250 ha         1 N9B       0.122500
     33 H12          5.3820    56.5510    84.3560 hc         1 N9B       0.062700
     34 H13          9.2340    57.2140    90.5100 h1         1 N9B       0.040700
     35 H14          8.8330    56.2490    89.0780 h1         1 N9B       0.040700
     36 H15          9.8100    57.7240    88.9110 h1         1 N9B       0.040700
     37 H16          8.7500    61.8900    89.1430 h1         1 N9B       0.036367
     38 H17          7.3420    61.8830    88.0660 h1         1 N9B       0.036367
     39 H18          7.3500    60.8730    89.5270 h1         1 N9B       0.036367
     40 H19          6.2150    58.7690    84.4280 ha         1 N9B       0.139000
     41 H20          7.8130    61.9710    83.9420 h1         1 N9B       0.042700
     42 H21          7.7360    60.2580    83.4910 h1         1 N9B       0.042700
     43 H22          6.2830    61.0870    84.0950 h1         1 N9B       0.042700
     44 H2           4.2920    56.4820    85.7380 hc         1 N9B       0.062700
     45 O4           5.4930    51.7140    89.0690 o          1 N9B      -0.523100
@<TRIPOS>BOND
     1     1     2 1   
     2     1    13 ar  
     3     1    15 ar  
     4     2     3 2   
     5     2    10 1   
     6     3     4 1   
     7     3    25 1   
     8     4     5 2   
     9     4    26 1   
    10     5     7 1   
    11     5     8 1   
    12     6     8 1   
    13     6    27 1   
    14     6    28 1   
    15     6    29 1   
    16     7     9 1   
    17     7    45 2   
    18     9    10 2   
    19     9    30 1   
    20    10    11 1   
    21    11    12 2   
    22    11    14 1   
    23    12    31 1   
    24    12    32 1   
    25    13    14 1   
    26    13    22 ar  
    27    14    33 1   
    28    14    44 1   
    29    15    16 1   
    30    15    18 ar  
    31    16    17 1   
    32    17    34 1   
    33    17    35 1   
    34    17    36 1   
    35    18    19 1   
    36    18    21 ar  
    37    19    20 1   
    38    20    37 1   
    39    20    38 1   
    40    20    39 1   
    41    21    22 ar  
    42    21    23 1   
    43    22    40 1   
    44    23    24 1   
    45    24    41 1   
    46    24    42 1   
    47    24    43 1   
@<TRIPOS>SUBSTRUCTURE
     1 N9B         1 TEMP              0 ****  ****    0 ROOT
