@<TRIPOS>MOLECULE
N9B
   45    47     1     0     0
SMALL
No Charge or Current Charge


@<TRIPOS>ATOM
      1 C11          6.4720    57.1970    87.5540 ca         1 N9B      -0.091800
      2 C12          6.0530    55.8780    88.1300 cc         1 N9B      -0.045200
      3 C13          5.6570    55.9610    89.4640 cd         1 N9B      -0.090000
      4 C14          5.2260    54.9430    90.3850 cd         1 N9B      -0.283000
      5 C15          5.0600    53.5850    90.1410 cc         1 N9B       0.074900
      6 C16          4.5310    53.3090    92.5990 c3         1 N9B       0.140900
      7 C17          5.1660    52.8420    88.8570 c          1 N9B       0.576500
      8 O3           4.7020    52.8200    91.2520 os         1 N9B      -0.309100
      9 C18          5.5050    53.4750    87.5800 cd         1 N9B      -0.302200
     10 C19          5.9010    54.7470    87.2310 cc         1 N9B       0.057000
     11 C1           6.1520    55.0120    85.8150 ce         1 N9B      -0.100200
     12 C            6.8410    54.1970    84.9840 c2         1 N9B      -0.282000
     13 C3           6.1780    57.4490    86.1940 ca         1 N9B      -0.025300
     14 C2           5.5850    56.3400    85.3380 c6         1 N9B       0.003100
     15 C9           7.1820    58.2110    88.2680 ca         1 N9B       0.131100
     16 O2           7.7250    57.9650    89.5160 os         1 N9B      -0.363100
     17 C10          8.7760    56.9920    89.6520 c3         1 N9B       0.151900
     18 C7           7.4450    59.4810    87.6940 ca         1 N9B       0.043100
     19 O1           8.1180    60.3980    88.5050 os         1 N9B      -0.338100
     20 C8           8.5070    61.7260    88.1110 c3         1 N9B       0.150900
     21 C5           7.0480    59.7350    86.3480 ca         1 N9B       0.140100
     22 C4           6.4440    58.6970    85.6100 ca         1 N9B      -0.196000
     23 O            7.2820    60.9660    85.7560 os         1 N9B      -0.322100
     24 C6           6.9010    61.2770    84.4030 c3         1 N9B       0.144900
     25 H1           5.6550    56.9470    89.9150 ha         1 N9B       0.192000
     26 H3           5.0290    55.3410    91.3720 ha         1 N9B       0.179000
     27 H4           4.2730    52.4800    93.2700 h1         1 N9B       0.046033
     28 H5           5.4560    53.7660    92.9730 h1         1 N9B       0.046033
     29 H6           3.7180    54.0450    92.6520 h1         1 N9B       0.046033
     30 H7           5.4330    52.7440    86.7850 ha         1 N9B       0.196000
     31 H9           7.2710    53.2550    85.3270 ha         1 N9B       0.172500
     32 H10          7.0100    54.4490    83.9370 ha         1 N9B       0.172500
     33 H12          5.8140    56.5020    84.2760 hc         1 N9B       0.062700
     34 H13          9.0990    56.9240    90.6980 h1         1 N9B       0.040700
     35 H14          8.4450    55.9960    89.3330 h1         1 N9B       0.040700
     36 H15          9.6440    57.2760    89.0440 h1         1 N9B       0.040700
     37 H16          9.0270    62.2260    88.9380 h1         1 N9B       0.036367
     38 H17          9.1930    61.6960    87.2550 h1         1 N9B       0.036367
     39 H18          7.6300    62.3320    87.8530 h1         1 N9B       0.036367
     40 H19          6.1720    58.8390    84.5690 ha         1 N9B       0.121000
     41 H20          7.1740    62.3110    84.1610 h1         1 N9B       0.042700
     42 H21          7.4130    60.6160    83.6920 h1         1 N9B       0.042700
     43 H22          5.8170    61.1720    84.2690 h1         1 N9B       0.042700
     44 H2           4.4900    56.3380    85.4310 hc         1 N9B       0.062700
     45 O4           4.9400    51.6350    88.8310 o          1 N9B      -0.523100
@<TRIPOS>BOND
     1     1     2 1   
     2     1    13 ar  
     3     1    15 ar  
     4     2     3 2   
     5     2    10 1   
     6     3     4 1   
     7     3    25 1   
     8     4     5 2   
     9     4    26 1   
    10     5     7 1   
    11     5     8 1   
    12     6     8 1   
    13     6    27 1   
    14     6    28 1   
    15     6    29 1   
    16     7     9 1   
    17     7    45 2   
    18     9    10 2   
    19     9    30 1   
    20    10    11 1   
    21    11    12 2   
    22    11    14 1   
    23    12    31 1   
    24    12    32 1   
    25    13    14 1   
    26    13    22 ar  
    27    14    33 1   
    28    14    44 1   
    29    15    16 1   
    30    15    18 ar  
    31    16    17 1   
    32    17    34 1   
    33    17    35 1   
    34    17    36 1   
    35    18    19 1   
    36    18    21 ar  
    37    19    20 1   
    38    20    37 1   
    39    20    38 1   
    40    20    39 1   
    41    21    22 ar  
    42    21    23 1   
    43    22    40 1   
    44    23    24 1   
    45    24    41 1   
    46    24    42 1   
    47    24    43 1   
@<TRIPOS>SUBSTRUCTURE
     1 N9B         1 TEMP              0 ****  ****    0 ROOT
