@<TRIPOS>MOLECULE
N9F
   25    26     1     0     0
SMALL
abcg2


@<TRIPOS>ATOM
      1 C1           4.6470     8.2860    42.5050 c3         1 N9F      -0.182100
      2 C2           5.5060     8.4630    43.7360 c          1 N9F       0.603100
      3 N4           6.6930     9.0580    43.5040 ns         1 N9F      -0.510900
      4 C5           7.7030     9.2880    44.5140 c3         1 N9F       0.151300
      5 C6           8.8030     8.2570    44.4860 ca         1 N9F      -0.154300
      6 C7           8.5430     6.9460    44.9560 ca         1 N9F      -0.055000
      7 C8           9.4920     5.9530    44.9370 ca         1 N9F      -0.134000
      8 C12         12.3910     7.5020    43.5280 cc         1 N9F       0.354800
      9 C13         11.0380     7.5820    43.9530 ca         1 N9F      -0.237900
     10 C14         10.0470     8.5740    43.9880 ca         1 N9F      -0.026000
     11 O3           5.1480     8.0970    44.8460 o          1 N9F      -0.606100
     12 C9          10.7510     6.2900    44.4240 ca         1 N9F      -0.035200
     13 N10         11.8860     5.5740    44.2580 na         1 N9F      -0.061400
     14 N11         12.8700     6.2970    43.7200 nd         1 N9F      -0.517100
     15 H17          3.6810     7.8690    42.7760 hc         1 N9F       0.060367
     16 H18          4.4910     9.2370    41.9940 hc         1 N9F       0.060367
     17 H16          5.1310     7.6130    41.7960 hc         1 N9F       0.060367
     18 H19          6.9390     9.2810    42.5520 hn         1 N9F       0.310500
     19 H20          8.1260    10.2810    44.3570 h1         1 N9F       0.062200
     20 H21          7.2130     9.3000    45.4870 h1         1 N9F       0.062200
     21 H22          7.5580     6.7220    45.3480 ha         1 N9F       0.131000
     22 H23          9.2740     4.9590    45.3040 ha         1 N9F       0.122000
     23 H24         13.0080     8.2770    43.0980 h4         1 N9F       0.049800
     24 H25         10.2580     9.5740    43.6280 ha         1 N9F       0.114000
     25 H15         12.0460     4.6050    44.4860 hn         1 N9F       0.376000
@<TRIPOS>BOND
     1     1     2 1   
     2     1    15 1   
     3     1    16 1   
     4     1    17 1   
     5     2     3 1   
     6     2    11 2   
     7     3     4 1   
     8     3    18 1   
     9     4     5 1   
    10     4    19 1   
    11     4    20 1   
    12     5     6 ar  
    13     5    10 ar  
    14     6     7 ar  
    15     6    21 1   
    16     7    12 ar  
    17     7    22 1   
    18     8     9 1   
    19     8    14 2   
    20     8    23 1   
    21     9    10 ar  
    22     9    12 ar  
    23    10    24 1   
    24    12    13 1   
    25    13    14 1   
    26    13    25 1   
@<TRIPOS>SUBSTRUCTURE
     1 N9F         1 TEMP              0 ****  ****    0 ROOT
