@<TRIPOS>MOLECULE
N9F
   25    26     1     0     0
SMALL
No Charge or Current Charge


@<TRIPOS>ATOM
      1 C1           4.7010     8.3500    42.3610 c3         1 N9F      -0.182100
      2 C2           5.5040     8.4160    43.6530 c          1 N9F       0.603100
      3 N4           6.6980     9.0890    43.5540 ns         1 N9F      -0.510900
      4 C5           7.6520     9.2630    44.6490 c3         1 N9F       0.151300
      5 C6           8.7570     8.2200    44.5860 ca         1 N9F      -0.154300
      6 C7           8.5680     6.9480    45.1910 ca         1 N9F      -0.055000
      7 C8           9.5830     5.9680    45.1390 ca         1 N9F      -0.134000
      8 C12         12.2730     7.4760    43.3170 cc         1 N9F       0.354800
      9 C13         10.9530     7.5140    43.8930 ca         1 N9F      -0.237900
     10 C14          9.9720     8.5130    43.9210 ca         1 N9F      -0.026000
     11 O3           5.1130     7.9100    44.6950 o          1 N9F      -0.606100
     12 C9          10.7680     6.3010    44.4740 ca         1 N9F      -0.035200
     13 N10         11.9170     5.5700    44.2590 na         1 N9F      -0.061400
     14 N11         12.8750     6.2930    43.5320 nd         1 N9F      -0.517100
     15 H17          3.7550     7.8080    42.4780 hc         1 N9F       0.060367
     16 H18          4.5410     9.3680    41.9880 hc         1 N9F       0.060367
     17 H16          5.3250     7.9090    41.5760 hc         1 N9F       0.060367
     18 H19          6.9340     9.4670    42.6450 hn         1 N9F       0.310500
     19 H20          8.0880    10.2690    44.5770 h1         1 N9F       0.062200
     20 H21          7.1320     9.2000    45.6140 h1         1 N9F       0.062200
     21 H22          7.6320     6.7230    45.6980 ha         1 N9F       0.131000
     22 H23          9.4470     4.9920    45.5990 ha         1 N9F       0.122000
     23 H24         12.8250     8.2240    42.7620 h4         1 N9F       0.049800
     24 H25         10.1410     9.4780    43.4470 ha         1 N9F       0.114000
     25 H15         12.0900     4.6160    44.5730 hn         1 N9F       0.376000
@<TRIPOS>BOND
     1     1     2 1   
     2     1    15 1   
     3     1    16 1   
     4     1    17 1   
     5     2     3 1   
     6     2    11 2   
     7     3     4 1   
     8     3    18 1   
     9     4     5 1   
    10     4    19 1   
    11     4    20 1   
    12     5     6 ar  
    13     5    10 ar  
    14     6     7 ar  
    15     6    21 1   
    16     7    12 ar  
    17     7    22 1   
    18     8     9 1   
    19     8    14 2   
    20     8    23 1   
    21     9    10 ar  
    22     9    12 ar  
    23    10    24 1   
    24    12    13 1   
    25    13    14 1   
    26    13    25 1   
@<TRIPOS>SUBSTRUCTURE
     1 N9F         1 TEMP              0 ****  ****    0 ROOT
