@<TRIPOS>MOLECULE
N9G
   51    54     1     0     0
SMALL
No Charge or Current Charge


@<TRIPOS>ATOM
      1 C4           6.7380    -0.6630     0.2860 c          1 N9G       0.626700
      2 C6           5.2500    -0.7270     0.0960 ca         1 N9G      -0.246600
      3 C7           4.6430    -1.9070    -0.3710 ca         1 N9G       0.005000
      4 C8           3.2480    -1.9250    -0.5060 ca         1 N9G      -0.233000
      5 C13         -2.0970     0.9440    -0.1150 ca         1 N9G       0.046000
      6 C15         -0.3920     2.2050    -1.3030 ca         1 N9G       0.392900
      7 C20         -5.6060    -0.2570     0.5600 c5         1 N9G      -0.040900
      8 C21         -6.0900    -1.3250     1.4600 c1         1 N9G       0.316900
      9 C24         -6.1610     0.3310    -1.9510 cx         1 N9G      -0.118900
     10 C26         -4.1460    -0.5250     0.1340 c          1 N9G       0.581000
     11 N2           7.3960     0.5860     0.1930 n          1 N9G      -0.407800
     12 C3           6.9340     1.6190    -0.7650 c3         1 N9G       0.086800
     13 O5           7.3570    -1.6730     0.5960 o          1 N9G      -0.600100
     14 C9           2.5170    -0.7800    -0.1720 ca         1 N9G       0.633900
     15 N10          1.1480    -0.7900    -0.2480 nu         1 N9G      -0.917800
     16 C11          0.1880     0.1790    -0.4000 ca         1 N9G       0.634900
     17 C12         -1.1160    -0.0490     0.0530 ca         1 N9G      -0.245000
     18 C14         -1.7180     2.0710    -0.8640 ca         1 N9G      -0.254000
     19 N16          0.5530     1.2720    -1.0760 nb         1 N9G      -0.692000
     20 N17         -3.4880     0.7210     0.1840 n          1 N9G      -0.223400
     21 C18         -4.3800     1.8470     0.5270 c5         1 N9G       0.098000
     22 C19         -5.5270     1.1290     1.2880 c5         1 N9G      -0.082400
     23 N22         -6.4890    -2.1370     2.1940 n1         1 N9G      -0.431000
     24 C23         -6.6720    -0.0590    -0.5760 cx         1 N9G      -0.129700
     25 C25         -6.6240    -1.0860    -1.6900 cx         1 N9G      -0.118900
     26 N28          3.0780     0.3280     0.3230 nb         1 N9G      -0.694000
     27 C29          4.4220     0.3520     0.4500 ca         1 N9G       0.405900
     28 H1           5.2360    -2.7840    -0.6300 ha         1 N9G       0.134000
     29 H2           2.7440    -2.8140    -0.8710 ha         1 N9G       0.125000
     30 H3          -0.0830     3.0800    -1.8730 h4         1 N9G       0.021100
     31 H4          -6.8010     0.9640    -2.5610 hc         1 N9G       0.081950
     32 H5          -5.0990     0.4870    -2.1190 hc         1 N9G       0.081950
     33 H6           9.4550     0.1810    -0.1040 h1         1 N9G       0.042033
     34 H7           9.1040     1.7520     0.6780 h1         1 N9G       0.042033
     35 H8           8.9380     0.2410     1.6090 h1         1 N9G       0.042033
     36 H9           6.2330     1.1890    -1.4920 h1         1 N9G       0.042033
     37 H10          6.4430     2.4370    -0.2230 h1         1 N9G       0.042033
     38 H11          7.7890     2.0280    -1.3180 h1         1 N9G       0.042033
     39 H12          0.7590    -1.7210    -0.1850 hn         1 N9G       0.506000
     40 H13         -1.3410    -0.9760     0.5680 ha         1 N9G       0.152000
     41 H14         -2.4350     2.8460    -1.1180 ha         1 N9G       0.124000
     42 H15         -3.8780     2.5970     1.1520 h1         1 N9G       0.061700
     43 H16         -4.7470     2.3410    -0.3820 h1         1 N9G       0.061700
     44 H17         -6.4630     1.7000     1.2850 hc         1 N9G       0.073700
     45 H18         -5.2400     1.0070     2.3400 hc         1 N9G       0.073700
     46 H19         -7.6630     0.2960    -0.2950 hc         1 N9G       0.087700
     47 H20         -7.5700    -1.3940    -2.1310 hc         1 N9G       0.081950
     48 H21         -5.8720    -1.8700    -1.6610 hc         1 N9G       0.081950
     49 H22          4.8340     1.2620     0.8810 h4         1 N9G       0.024100
     50 O27         -3.6360    -1.5930    -0.1890 o          1 N9G      -0.502000
     51 C1           8.8080     0.6960     0.6190 c3         1 N9G       0.086800
@<TRIPOS>BOND
     1     1     2 1   
     2     1    11 1   
     3     1    13 2   
     4     2     3 ar  
     5     2    27 ar  
     6     3     4 ar  
     7     3    28 1   
     8     4    14 ar  
     9     4    29 1   
    10     5    17 ar  
    11     5    18 ar  
    12     5    20 1   
    13     6    18 ar  
    14     6    19 ar  
    15     6    30 1   
    16     7     8 1   
    17     7    10 1   
    18     7    22 1   
    19     7    24 1   
    20     8    23 3   
    21     9    24 1   
    22     9    25 1   
    23     9    31 1   
    24     9    32 1   
    25    10    20 1   
    26    10    50 2   
    27    11    12 1   
    28    11    51 1   
    29    12    36 1   
    30    12    37 1   
    31    12    38 1   
    32    14    15 1   
    33    14    26 ar  
    34    15    16 1   
    35    15    39 1   
    36    16    17 ar  
    37    16    19 ar  
    38    17    40 1   
    39    18    41 1   
    40    20    21 1   
    41    21    22 1   
    42    21    42 1   
    43    21    43 1   
    44    22    44 1   
    45    22    45 1   
    46    24    25 1   
    47    24    46 1   
    48    25    47 1   
    49    25    48 1   
    50    26    27 ar  
    51    27    49 1   
    52    33    51 1   
    53    34    51 1   
    54    35    51 1   
@<TRIPOS>SUBSTRUCTURE
     1 N9G         1 TEMP              0 ****  ****    0 ROOT
