@<TRIPOS>MOLECULE
N9G
   51    54     1     0     0
SMALL
abcg2


@<TRIPOS>ATOM
      1 C4           6.6230    -0.6250     0.3110 c          1 N9G       0.626700
      2 C6           5.1490    -0.6240     0.1040 ca         1 N9G      -0.246600
      3 C7           4.5030    -1.8050    -0.2700 ca         1 N9G       0.005000
      4 C8           3.1350    -1.8270    -0.3790 ca         1 N9G      -0.233000
      5 C13         -2.1700     0.9780     0.0690 ca         1 N9G       0.046000
      6 C15         -0.4200     2.4820    -0.5290 ca         1 N9G       0.392900
      7 C20         -5.6440    -0.2120     0.4890 c5         1 N9G      -0.040900
      8 C21         -6.2340    -1.2500     1.3260 c1         1 N9G       0.316900
      9 C24         -5.6590     0.0740    -2.1560 cx         1 N9G      -0.118900
     10 C26         -4.1390    -0.4660     0.3360 c          1 N9G       0.581000
     11 N2           7.3270     0.4550    -0.0840 n          1 N9G      -0.407800
     12 C3           6.8820     1.4260    -1.0650 c3         1 N9G       0.086800
     13 O5           7.1480    -1.5870     0.8620 o          1 N9G      -0.600100
     14 C9           2.4160    -0.6590    -0.0670 ca         1 N9G       0.633900
     15 N10          1.0460    -0.7090    -0.1470 nu         1 N9G      -0.917800
     16 C11          0.1220     0.3190    -0.1640 ca         1 N9G       0.634900
     17 C12         -1.2040    -0.0160     0.1350 ca         1 N9G      -0.245000
     18 C14         -1.7580     2.2730    -0.2690 ca         1 N9G      -0.254000
     19 N16          0.5130     1.5390    -0.4940 nb         1 N9G      -0.692000
     20 N17         -3.5190     0.7460     0.3480 n          1 N9G      -0.223400
     21 C18         -4.4540     1.8530     0.5460 c5         1 N9G       0.098000
     22 C19         -5.6780     1.1740     1.1420 c5         1 N9G      -0.082400
     23 N22         -6.7180    -2.0650     1.9760 n1         1 N9G      -0.431000
     24 C23         -6.3560    -0.2170    -0.8620 cx         1 N9G      -0.129700
     25 C25         -6.1670    -1.3050    -1.8690 cx         1 N9G      -0.118900
     26 N28          3.0160     0.4500     0.3390 nb         1 N9G      -0.694000
     27 C29          4.3400     0.4610     0.4070 ca         1 N9G       0.405900
     28 H1           5.0750    -2.6950    -0.4960 ha         1 N9G       0.134000
     29 H2           2.6180    -2.7220    -0.6990 ha         1 N9G       0.125000
     30 H3          -0.0840     3.4780    -0.7960 h4         1 N9G       0.021100
     31 H4          -6.1900     0.6880    -2.8720 hc         1 N9G       0.081950
     32 H5          -4.5860     0.2250    -2.1670 hc         1 N9G       0.081950
     33 H6           9.3670     0.1120    -0.5140 h1         1 N9G       0.042033
     34 H7           8.9990     1.5970     0.3710 h1         1 N9G       0.042033
     35 H8           8.9340     0.0410     1.2010 h1         1 N9G       0.042033
     36 H9           5.9360     1.1400    -1.5120 h1         1 N9G       0.042033
     37 H10          6.7760     2.4190    -0.6240 h1         1 N9G       0.042033
     38 H11          7.6180     1.4900    -1.8680 h1         1 N9G       0.042033
     39 H12          0.6560    -1.6360    -0.2090 hn         1 N9G       0.506000
     40 H13         -1.4420    -1.0280     0.4180 ha         1 N9G       0.152000
     41 H14         -2.4470     3.1010    -0.3460 ha         1 N9G       0.124000
     42 H15         -4.0300     2.5910     1.2240 h1         1 N9G       0.061700
     43 H16         -4.6810     2.3420    -0.4030 h1         1 N9G       0.061700
     44 H17         -6.5980     1.7120     0.9280 hc         1 N9G       0.073700
     45 H18         -5.5680     1.0910     2.2240 hc         1 N9G       0.073700
     46 H19         -7.3640     0.1740    -0.7740 hc         1 N9G       0.087700
     47 H20         -7.0480    -1.6540    -2.3910 hc         1 N9G       0.081950
     48 H21         -5.4370    -2.0780    -1.6650 hc         1 N9G       0.081950
     49 H22          4.7800     1.3910     0.7540 h4         1 N9G       0.024100
     50 O27         -3.6360    -1.5560     0.2030 o          1 N9G      -0.502000
     51 C1           8.7310     0.5470     0.2620 c3         1 N9G       0.086800
@<TRIPOS>BOND
     1     1     2 1   
     2     1    11 1   
     3     1    13 2   
     4     2     3 ar  
     5     2    27 ar  
     6     3     4 ar  
     7     3    28 1   
     8     4    14 ar  
     9     4    29 1   
    10     5    17 ar  
    11     5    18 ar  
    12     5    20 1   
    13     6    18 ar  
    14     6    19 ar  
    15     6    30 1   
    16     7     8 1   
    17     7    10 1   
    18     7    22 1   
    19     7    24 1   
    20     8    23 3   
    21     9    24 1   
    22     9    25 1   
    23     9    31 1   
    24     9    32 1   
    25    10    20 1   
    26    10    50 2   
    27    11    12 1   
    28    11    51 1   
    29    12    36 1   
    30    12    37 1   
    31    12    38 1   
    32    14    15 1   
    33    14    26 ar  
    34    15    16 1   
    35    15    39 1   
    36    16    17 ar  
    37    16    19 ar  
    38    17    40 1   
    39    18    41 1   
    40    20    21 1   
    41    21    22 1   
    42    21    42 1   
    43    21    43 1   
    44    22    44 1   
    45    22    45 1   
    46    24    25 1   
    47    24    46 1   
    48    25    47 1   
    49    25    48 1   
    50    26    27 ar  
    51    27    49 1   
    52    33    51 1   
    53    34    51 1   
    54    35    51 1   
@<TRIPOS>SUBSTRUCTURE
     1 N9G         1 TEMP              0 ****  ****    0 ROOT
