@<TRIPOS>MOLECULE
N9H
   52    54     1     0     0
SMALL
bcc


@<TRIPOS>ATOM
      1 C1          -4.6800    -0.7780    -0.0600 ca         1 N9H       0.118900
      2 C2          -3.3160    -0.8970     0.0950 ca         1 N9H      -0.140000
      3 C3          -2.4680     0.1400    -0.3050 ca         1 N9H      -0.113900
      4 C4          -3.0690     1.2730    -0.8590 ca         1 N9H       0.148900
      5 C5          -4.4350     1.3850    -1.0100 ca         1 N9H      -0.151000
      6 C6          -5.2630     0.3480    -0.6070 ca         1 N9H      -0.135000
      7 C10         -1.0320    -0.0130    -0.1180 ce         1 N9H       0.350900
      8 N1          -0.1760     0.8690    -0.4680 n2         1 N9H      -0.407300
      9 N12          1.0650     0.4430    -0.1650 n          1 N9H      -0.270800
     10 C13          1.1080    -0.8560     0.5280 c5         1 N9H       0.183700
     11 C14         -0.4000    -1.2270     0.4970 c5         1 N9H      -0.157700
     12 C17          1.9150    -1.8600    -0.2800 ca         1 N9H      -0.077300
     13 C19          1.8030    -1.8700    -1.6700 ca         1 N9H      -0.109500
     14 C20          2.4790    -2.8090    -2.4330 ca         1 N9H      -0.129000
     15 C21          3.2800    -3.7640    -1.8190 ca         1 N9H      -0.121000
     16 C22          3.3920    -3.7680    -0.4380 ca         1 N9H      -0.129000
     17 C23          2.7140    -2.8230     0.3250 ca         1 N9H      -0.109500
     18 C29          2.1640     1.2220    -0.4580 c          1 N9H       0.813100
     19 N30          1.8960     2.3840    -1.0790 ns         1 N9H      -0.577900
     20 C31          2.9440     3.3120    -1.4500 c3         1 N9H       0.121000
     21 O39          3.2910     0.8470    -0.1650 o          1 N9H      -0.624100
     22 F40         -2.3100     2.2970    -1.2610 f          1 N9H      -0.123900
     23 F41         -5.4650    -1.7910     0.3360 f          1 N9H      -0.137900
     24 C7           1.5930    -0.7000     1.9760 c3         1 N9H      -0.079400
     25 C8           0.9420     0.4470     2.7370 c3         1 N9H      -0.079400
     26 C9           2.3440     4.5230    -2.1400 c3         1 N9H      -0.112100
     27 C11          1.3260     0.4290     4.2100 c3         1 N9H       0.148800
     28 N2           0.7350     1.5600     4.9100 n8         1 N9H      -0.881800
     29 H2          -2.9100    -1.8020     0.5270 ha         1 N9H       0.154000
     30 H5          -4.8540     2.2830    -1.4430 ha         1 N9H       0.157000
     31 H6          -6.3360     0.4210    -0.7180 ha         1 N9H       0.157000
     32 H141        -0.7860    -1.4350     1.4980 hc         1 N9H       0.075200
     33 H142        -0.5950    -2.1190    -0.1030 hc         1 N9H       0.075200
     34 H19          1.1870    -1.1340    -2.1740 ha         1 N9H       0.132500
     35 H20          2.3800    -2.7930    -3.5110 ha         1 N9H       0.130500
     36 H21          3.8090    -4.4980    -2.4130 ha         1 N9H       0.131000
     37 H22          4.0090    -4.5070     0.0570 ha         1 N9H       0.130500
     38 H23          2.8230    -2.8530     1.4010 ha         1 N9H       0.132500
     39 HN30         0.9370     2.6250    -1.2690 hn         1 N9H       0.340500
     40 H311         3.6600     2.8240    -2.1150 h1         1 N9H       0.048200
     41 H312         3.4990     3.6300    -0.5640 h1         1 N9H       0.048200
     42 H71          1.3780    -1.6380     2.4960 hc         1 N9H       0.059200
     43 H72          2.6770    -0.5750     1.9950 hc         1 N9H       0.059200
     44 H81          1.2390     1.4090     2.3120 hc         1 N9H       0.051700
     45 H82         -0.1500     0.3950     2.6600 hc         1 N9H       0.051700
     46 H91          1.8100     4.2400    -3.0480 hc         1 N9H       0.043033
     47 H92          1.6500     5.0490    -1.4830 hc         1 N9H       0.043033
     48 H93          3.1320     5.2200    -2.4200 hc         1 N9H       0.043033
     49 H111         1.0500    -0.5450     4.6390 h1         1 N9H       0.026700
     50 H112         2.4140     0.5050     4.2960 h1         1 N9H       0.026700
     51 HN21        -0.2720     1.4490     4.9280 hn         1 N9H       0.334800
     52 HN22         1.0240     1.5440     5.8800 hn         1 N9H       0.334800
@<TRIPOS>BOND
     1     1     2 ar  
     2     1     6 ar  
     3     1    23 1   
     4     2     3 ar  
     5     2    29 1   
     6     3     4 ar  
     7     3     7 1   
     8     4     5 ar  
     9     4    22 1   
    10     5     6 ar  
    11     5    30 1   
    12     6    31 1   
    13     7     8 2   
    14     7    11 1   
    15     8     9 1   
    16     9    10 1   
    17     9    18 1   
    18    10    11 1   
    19    10    12 1   
    20    10    24 1   
    21    11    32 1   
    22    11    33 1   
    23    12    13 ar  
    24    12    17 ar  
    25    13    14 ar  
    26    13    34 1   
    27    14    15 ar  
    28    14    35 1   
    29    15    16 ar  
    30    15    36 1   
    31    16    17 ar  
    32    16    37 1   
    33    17    38 1   
    34    18    19 1   
    35    18    21 2   
    36    19    20 1   
    37    19    39 1   
    38    20    26 1   
    39    20    40 1   
    40    20    41 1   
    41    24    25 1   
    42    24    42 1   
    43    24    43 1   
    44    25    27 1   
    45    25    44 1   
    46    25    45 1   
    47    26    46 1   
    48    26    47 1   
    49    26    48 1   
    50    27    28 1   
    51    27    49 1   
    52    27    50 1   
    53    28    51 1   
    54    28    52 1   
@<TRIPOS>SUBSTRUCTURE
     1 N9H         1 TEMP              0 ****  ****    0 ROOT
