@<TRIPOS>MOLECULE
N9H
   52    54     1     0     0
SMALL
No Charge or Current Charge


@<TRIPOS>ATOM
      1 C1          -4.7910    -0.8030    -0.2640 ca         1 N9H       0.154000
      2 C2          -3.4040    -0.9350    -0.0960 ca         1 N9H      -0.122000
      3 C3          -2.5420     0.1760    -0.2710 ca         1 N9H      -0.113900
      4 C4          -3.1210     1.4220    -0.6320 ca         1 N9H       0.184000
      5 C5          -4.5120     1.5450    -0.7980 ca         1 N9H      -0.133000
      6 C6          -5.3510     0.4330    -0.6140 ca         1 N9H      -0.117000
      7 C10         -1.0630    -0.0120    -0.1010 ce         1 N9H       0.350900
      8 N1          -0.1710     0.8600    -0.4160 n2         1 N9H      -0.407300
      9 N12          1.0910     0.4600    -0.0910 n          1 N9H      -0.203800
     10 C13          1.1240    -0.8410     0.6100 c5         1 N9H       0.183700
     11 C14         -0.3940    -1.2680     0.4650 c5         1 N9H      -0.157700
     12 C17          1.9310    -1.8420    -0.2630 ca         1 N9H      -0.077300
     13 C19          1.7250    -1.9070    -1.6640 ca         1 N9H      -0.091500
     14 C20          2.4450    -2.8090    -2.4650 ca         1 N9H      -0.111000
     15 C21          3.3880    -3.6680    -1.8840 ca         1 N9H      -0.103000
     16 C22          3.6070    -3.6240    -0.5000 ca         1 N9H      -0.111000
     17 C23          2.8860    -2.7220     0.3030 ca         1 N9H      -0.091500
     18 C29          2.2590     1.1820    -0.4560 c          1 N9H       0.679100
     19 N30          2.0140     2.3310    -1.1660 ns         1 N9H      -0.510900
     20 C31          3.0400     3.2470    -1.6540 c3         1 N9H       0.121000
     21 O39          3.3950     0.8360    -0.1620 o          1 N9H      -0.624100
     22 F40         -2.3650     2.5280    -0.8140 f          1 N9H      -0.159000
     23 F41         -5.5930    -1.8760    -0.0900 f          1 N9H      -0.173000
     24 C7           1.5550    -0.7010     2.1060 c3         1 N9H      -0.079400
     25 C8           0.8250     0.3940     2.9300 c3         1 N9H      -0.079400
     26 C9           2.4230     4.4130    -2.4410 c3         1 N9H      -0.112100
     27 C11          1.3010     0.4490     4.3960 c3         1 N9H       0.148800
     28 N2           0.5970     1.4980     5.1550 n8         1 N9H      -0.992200
     29 H2          -3.0070    -1.9110     0.1690 ha         1 N9H       0.136000
     30 H5          -4.9380     2.5090    -1.0700 ha         1 N9H       0.139000
     31 H6          -6.4260     0.5270    -0.7420 ha         1 N9H       0.139000
     32 H141        -0.8430    -1.5610     1.4190 hc         1 N9H       0.075200
     33 H142        -0.5400    -2.1120    -0.2170 hc         1 N9H       0.075200
     34 H19          0.9980    -1.2550    -2.1420 ha         1 N9H       0.114500
     35 H20          2.2710    -2.8400    -3.5380 ha         1 N9H       0.112500
     36 H21          3.9460    -4.3670    -2.5030 ha         1 N9H       0.113000
     37 H22          4.3360    -4.2900    -0.0450 ha         1 N9H       0.112500
     38 H23          3.0840    -2.7220     1.3710 ha         1 N9H       0.114500
     39 HN30         1.0380     2.5270    -1.3480 hn         1 N9H       0.340500
     40 H311         3.7340     2.6930    -2.3000 h1         1 N9H       0.048200
     41 H312         3.6040     3.6390    -0.7970 h1         1 N9H       0.048200
     42 H71          1.4100    -1.6630     2.6130 hc         1 N9H       0.059200
     43 H72          2.6300    -0.4900     2.1510 hc         1 N9H       0.059200
     44 H81          0.9950     1.3740     2.4670 hc         1 N9H       0.051700
     45 H82         -0.2560     0.2130     2.9110 hc         1 N9H       0.051700
     46 H91          1.8680     4.0420    -3.3110 hc         1 N9H       0.043033
     47 H92          1.7380     4.9890    -1.8080 hc         1 N9H       0.043033
     48 H93          3.2100     5.0880    -2.7980 hc         1 N9H       0.043033
     49 H111         1.1180    -0.5200     4.8820 h1         1 N9H       0.026700
     50 H112         2.3800     0.6560     4.4270 h1         1 N9H       0.026700
     51 HN21        -0.4010     1.2630     5.2040 hn         1 N9H       0.390000
     52 HN22         0.9010     1.4620     6.1360 hn         1 N9H       0.390000
@<TRIPOS>BOND
     1     1     2 ar  
     2     1     6 ar  
     3     1    23 1   
     4     2     3 ar  
     5     2    29 1   
     6     3     4 ar  
     7     3     7 1   
     8     4     5 ar  
     9     4    22 1   
    10     5     6 ar  
    11     5    30 1   
    12     6    31 1   
    13     7     8 2   
    14     7    11 1   
    15     8     9 1   
    16     9    10 1   
    17     9    18 1   
    18    10    11 1   
    19    10    12 1   
    20    10    24 1   
    21    11    32 1   
    22    11    33 1   
    23    12    13 ar  
    24    12    17 ar  
    25    13    14 ar  
    26    13    34 1   
    27    14    15 ar  
    28    14    35 1   
    29    15    16 ar  
    30    15    36 1   
    31    16    17 ar  
    32    16    37 1   
    33    17    38 1   
    34    18    19 1   
    35    18    21 2   
    36    19    20 1   
    37    19    39 1   
    38    20    26 1   
    39    20    40 1   
    40    20    41 1   
    41    24    25 1   
    42    24    42 1   
    43    24    43 1   
    44    25    27 1   
    45    25    44 1   
    46    25    45 1   
    47    26    46 1   
    48    26    47 1   
    49    26    48 1   
    50    27    28 1   
    51    27    49 1   
    52    27    50 1   
    53    28    51 1   
    54    28    52 1   
@<TRIPOS>SUBSTRUCTURE
     1 N9H         1 TEMP              0 ****  ****    0 ROOT
