@<TRIPOS>MOLECULE
N9I
   40    42     1     0     0
SMALL
No Charge or Current Charge


@<TRIPOS>ATOM
      1 N1          10.4130    -1.5760    21.0680 ns         1 N9I      -0.166000
      2 C4           7.3370     0.1430    18.1480 ca         1 N9I       0.344900
      3 C5           7.5830    -0.3950    19.4300 ca         1 N9I      -0.128300
      4 C6           8.4740    -1.6380    19.5580 c3         1 N9I      -0.105100
      5 C7           9.9400    -1.2520    19.8010 c          1 N9I       0.600100
      6 C8          11.6820    -1.4110    21.7000 ca         1 N9I      -0.023000
      7 C10         14.0560    -0.8170    21.6510 ca         1 N9I      -0.088000
      8 C13         13.2210    -1.9530    25.2070 c6         1 N9I      -0.071100
      9 C15         10.5850    -2.2610    23.8650 c6         1 N9I       0.198100
     10 O           10.6050    -0.7050    18.9290 o          1 N9I      -0.572100
     11 N            6.5720     1.2360    17.9260 nb         1 N9I      -0.665000
     12 C3           6.0200     1.8410    18.9990 ca         1 N9I       0.340900
     13 C2           6.2110     1.3860    20.3130 ca         1 N9I      -0.166000
     14 C1           7.0040     0.2490    20.5500 ca         1 N9I      -0.008300
     15 C            7.2180    -0.2360    21.9800 c3         1 N9I      -0.058800
     16 C16         11.8030    -1.7370    23.0760 ca         1 N9I      -0.149300
     17 N2          10.7570    -2.1420    25.3290 n7         1 N9I      -0.842400
     18 C14         12.0270    -2.7440    25.7820 c6         1 N9I       0.149800
     19 C12         13.0590    -1.6110    23.7220 ca         1 N9I      -0.057300
     20 C11         14.1740    -1.1450    23.0070 ca         1 N9I      -0.123000
     21 C9          12.8200    -0.9510    20.9990 ca         1 N9I      -0.112000
     22 H1           9.7220    -2.0190    21.6580 hn         1 N9I       0.150000
     23 H3           8.1150    -2.2900    20.3630 hc         1 N9I       0.065200
     24 H4           8.4310    -2.2090    18.6230 hc         1 N9I       0.065200
     25 H5          14.9240    -0.4610    21.1000 ha         1 N9I       0.119000
     26 H6          14.1440    -2.5280    25.3650 hc         1 N9I       0.055200
     27 H7          13.3410    -1.0200    25.7730 hc         1 N9I       0.055200
     28 H8           9.6800    -1.7070    23.5750 h1         1 N9I       0.052700
     29 H9          10.4220    -3.3180    23.6020 h1         1 N9I       0.052700
     30 H10          5.4090     2.7200    18.8000 h4         1 N9I       0.020100
     31 H11          5.7430     1.9210    21.1340 ha         1 N9I       0.122000
     32 H12          6.9110    -1.2810    22.1000 hc         1 N9I       0.051367
     33 H13          8.2710    -0.1500    22.2720 hc         1 N9I       0.051367
     34 H14          6.6360     0.3550    22.6970 hc         1 N9I       0.051367
     35 H15         10.7830    -1.1430    25.5640 hn         1 N9I       0.408000
     36 H17         12.0800    -3.7920    25.4500 h1         1 N9I       0.057700
     37 H18         12.0780    -2.7400    26.8810 h1         1 N9I       0.057700
     38 H19         15.1360    -1.0380    23.5040 ha         1 N9I       0.114000
     39 H20         12.7760    -0.7000    19.9450 ha         1 N9I       0.140000
     40 H2           7.7700    -0.3200    17.2610 h4         1 N9I       0.014100
@<TRIPOS>BOND
     1     1     5 1   
     2     1     6 1   
     3     1    22 1   
     4     2     3 ar  
     5     2    11 ar  
     6     2    40 1   
     7     3     4 1   
     8     3    14 ar  
     9     4     5 1   
    10     4    23 1   
    11     4    24 1   
    12     5    10 2   
    13     6    16 ar  
    14     6    21 ar  
    15     7    20 ar  
    16     7    21 ar  
    17     7    25 1   
    18     8    18 1   
    19     8    19 1   
    20     8    26 1   
    21     8    27 1   
    22     9    16 1   
    23     9    17 1   
    24     9    28 1   
    25     9    29 1   
    26    11    12 ar  
    27    12    13 ar  
    28    12    30 1   
    29    13    14 ar  
    30    13    31 1   
    31    14    15 1   
    32    15    32 1   
    33    15    33 1   
    34    15    34 1   
    35    16    19 ar  
    36    17    18 1   
    37    17    35 1   
    38    18    36 1   
    39    18    37 1   
    40    19    20 ar  
    41    20    38 1   
    42    21    39 1   
@<TRIPOS>SUBSTRUCTURE
     1 N9I         1 TEMP              0 ****  ****    0 ROOT
