@<TRIPOS>MOLECULE
N9I
   40    42     1     0     0
SMALL
abcg2


@<TRIPOS>ATOM
      1 N1          10.2850    -1.5160    21.6190 ns         1 N9I      -0.166000
      2 C4           7.3860    -0.6410    18.3360 ca         1 N9I       0.344900
      3 C5           7.3760    -0.2540    19.6730 ca         1 N9I      -0.128300
      4 C6           8.0990    -1.0960    20.6840 c3         1 N9I      -0.105100
      5 C7           9.5020    -0.5840    21.0110 c          1 N9I       0.600100
      6 C8          11.6070    -1.3440    22.0980 ca         1 N9I      -0.023000
      7 C10         13.8290    -0.4580    21.8660 ca         1 N9I      -0.088000
      8 C13         13.7270    -2.5970    25.0050 c6         1 N9I      -0.071100
      9 C15         10.9560    -2.8230    24.0490 c6         1 N9I       0.198100
     10 O            9.8650     0.5590    20.7680 o          1 N9I      -0.572100
     11 N            6.7950     0.0330    17.3460 nb         1 N9I      -0.665000
     12 C3           6.1500     1.1540    17.6810 ca         1 N9I       0.340900
     13 C2           6.0740     1.6230    18.9850 ca         1 N9I      -0.166000
     14 C1           6.6930     0.9210    20.0170 ca         1 N9I      -0.008300
     15 C            6.6170     1.4090    21.4330 c3         1 N9I      -0.058800
     16 C16         11.9760    -1.9980    23.2850 ca         1 N9I      -0.149300
     17 N2          11.3640    -3.2420    25.3870 n7         1 N9I      -0.842400
     18 C14         12.7530    -3.7010    25.4060 c6         1 N9I       0.149800
     19 C12         13.2940    -1.8910    23.7400 ca         1 N9I      -0.057300
     20 C11         14.2090    -1.1150    23.0270 ca         1 N9I      -0.123000
     21 C9          12.5280    -0.5750    21.3910 ca         1 N9I      -0.112000
     22 H1           9.8510    -2.4080    21.7990 hn         1 N9I       0.150000
     23 H3           7.5470    -1.1350    21.6270 hc         1 N9I       0.065200
     24 H4           8.1750    -2.1240    20.3260 hc         1 N9I       0.065200
     25 H5          14.5480     0.1370    21.3170 ha         1 N9I       0.119000
     26 H6          14.7350    -3.0000    24.8730 hc         1 N9I       0.055200
     27 H7          13.7890    -1.8680    25.8210 hc         1 N9I       0.055200
     28 H8          10.0230    -2.2630    24.1370 h1         1 N9I       0.052700
     29 H9          10.7200    -3.7240    23.4660 h1         1 N9I       0.052700
     30 H10          5.6720     1.7000    16.8750 h4         1 N9I       0.020100
     31 H11          5.5320     2.5360    19.1970 ha         1 N9I       0.122000
     32 H12          6.1440     0.6640    22.0780 hc         1 N9I       0.051367
     33 H13          7.6150     1.5950    21.8340 hc         1 N9I       0.051367
     34 H14          6.0390     2.3310    21.4950 hc         1 N9I       0.051367
     35 H15         11.2720    -2.4540    26.0200 hn         1 N9I       0.408000
     36 H17         12.8350    -4.5430    24.7120 h1         1 N9I       0.057700
     37 H18         12.9920    -4.0750    26.4020 h1         1 N9I       0.057700
     38 H19         15.2280    -1.0360    23.3870 ha         1 N9I       0.114000
     39 H20         12.2290    -0.0820    20.4790 ha         1 N9I       0.140000
     40 H2           7.9020    -1.5540    18.0540 h4         1 N9I       0.014100
@<TRIPOS>BOND
     1     1     5 1   
     2     1     6 1   
     3     1    22 1   
     4     2     3 ar  
     5     2    11 ar  
     6     2    40 1   
     7     3     4 1   
     8     3    14 ar  
     9     4     5 1   
    10     4    23 1   
    11     4    24 1   
    12     5    10 2   
    13     6    16 ar  
    14     6    21 ar  
    15     7    20 ar  
    16     7    21 ar  
    17     7    25 1   
    18     8    18 1   
    19     8    19 1   
    20     8    26 1   
    21     8    27 1   
    22     9    16 1   
    23     9    17 1   
    24     9    28 1   
    25     9    29 1   
    26    11    12 ar  
    27    12    13 ar  
    28    12    30 1   
    29    13    14 ar  
    30    13    31 1   
    31    14    15 1   
    32    15    32 1   
    33    15    33 1   
    34    15    34 1   
    35    16    19 ar  
    36    17    18 1   
    37    17    35 1   
    38    18    36 1   
    39    18    37 1   
    40    19    20 ar  
    41    20    38 1   
    42    21    39 1   
@<TRIPOS>SUBSTRUCTURE
     1 N9I         1 TEMP              0 ****  ****    0 ROOT
