@<TRIPOS>MOLECULE
N9J
   21    21     1     0     0
SMALL
bcc


@<TRIPOS>ATOM
      1 CAA          3.2200    -1.1940    -0.3680 ca         1 N9J      -0.133500
      2 CAB          3.9010    -0.0030    -0.5930 ca         1 N9J      -0.114000
      3 CAC          3.2960     1.2070    -0.2800 ca         1 N9J      -0.133500
      4 CAD          2.0120     1.2250     0.2500 ca         1 N9J      -0.101500
      5 CAE          1.3250     0.0370     0.4780 ca         1 N9J      -0.104300
      6 CAF          1.9390    -1.1730     0.1640 ca         1 N9J      -0.101500
      7 CAG         -0.0710     0.0590     1.0230 c3         1 N9J       0.207700
      8 CAI         -2.2640    -0.0580     0.1630 c          1 N9J       0.735100
      9 NAK         -2.9570    -0.0800    -1.0090 ns         1 N9J      -0.405400
     10 OAH         -0.9580    -0.0420    -0.1000 os         1 N9J      -0.433900
     11 OAJ         -2.7560    -0.0090     1.2650 o          1 N9J      -0.551000
     12 OAL         -4.2770    -0.4300    -0.9180 oh         1 N9J      -0.398100
     13 H1           3.6890    -2.1400    -0.6050 ha         1 N9J       0.133000
     14 H2           4.9010    -0.0190    -1.0060 ha         1 N9J       0.132000
     15 H3           3.8230     2.1370    -0.4490 ha         1 N9J       0.133000
     16 H4           1.5460     2.1720     0.4930 ha         1 N9J       0.133000
     17 H5           1.4170    -2.1050     0.3420 ha         1 N9J       0.133000
     18 H6          -0.2370    -0.7770     1.7060 h1         1 N9J       0.058200
     19 H7          -0.2610     0.9860     1.5670 h1         1 N9J       0.058200
     20 H8          -2.5060    -0.4530    -1.8340 hn         1 N9J       0.331500
     21 H9          -4.7710     0.3770    -1.1040 ho         1 N9J       0.421000
@<TRIPOS>BOND
     1     1     2 ar  
     2     1     6 ar  
     3     1    13 1   
     4     2     3 ar  
     5     2    14 1   
     6     3     4 ar  
     7     3    15 1   
     8     4     5 ar  
     9     4    16 1   
    10     5     6 ar  
    11     5     7 1   
    12     6    17 1   
    13     7    10 1   
    14     7    18 1   
    15     7    19 1   
    16     8     9 1   
    17     8    10 1   
    18     8    11 2   
    19     9    12 1   
    20     9    20 1   
    21    12    21 1   
@<TRIPOS>SUBSTRUCTURE
     1 N9J         1 TEMP              0 ****  ****    0 ROOT
