@<TRIPOS>MOLECULE
N9J
   21    21     1     0     0
SMALL
No Charge or Current Charge


@<TRIPOS>ATOM
      1 CAA          3.3210    -1.2070    -0.3240 ca         1 N9J      -0.115500
      2 CAB          3.9620     0.0140    -0.5970 ca         1 N9J      -0.096000
      3 CAC          3.2980     1.2260    -0.3410 ca         1 N9J      -0.115500
      4 CAD          1.9950     1.2180     0.1880 ca         1 N9J      -0.083500
      5 CAE          1.3490    -0.0030     0.4660 ca         1 N9J      -0.104300
      6 CAF          2.0180    -1.2160     0.2050 ca         1 N9J      -0.083500
      7 CAG         -0.0620    -0.0130     1.0400 c3         1 N9J       0.230900
      8 CAI         -2.3240    -0.0400     0.2530 c          1 N9J       0.619100
      9 NAK         -3.0580    -0.0510    -0.9180 ns         1 N9J      -0.338400
     10 OAH         -0.9960    -0.0290    -0.0530 os         1 N9J      -0.457100
     11 OAJ         -2.7950    -0.0340     1.3820 o          1 N9J      -0.502000
     12 OAL         -4.4780    -0.3400    -0.9090 oh         1 N9J      -0.437100
     13 H1           3.8330    -2.1460    -0.5230 ha         1 N9J       0.115000
     14 H2           4.9700     0.0210    -1.0060 ha         1 N9J       0.114000
     15 H3           3.7920     2.1710    -0.5520 ha         1 N9J       0.115000
     16 H4           1.4880     2.1610     0.3810 ha         1 N9J       0.115000
     17 H5           1.5280    -2.1650     0.4100 ha         1 N9J       0.115000
     18 H6          -0.1930    -0.8980     1.6770 h1         1 N9J       0.058200
     19 H7          -0.2100     0.8780     1.6660 h1         1 N9J       0.058200
     20 H8          -2.5660    -0.2100    -1.7950 hn         1 N9J       0.331500
     21 H9          -4.8610     0.3810    -1.4640 ho         1 N9J       0.460000
@<TRIPOS>BOND
     1     1     2 ar  
     2     1     6 ar  
     3     1    13 1   
     4     2     3 ar  
     5     2    14 1   
     6     3     4 ar  
     7     3    15 1   
     8     4     5 ar  
     9     4    16 1   
    10     5     6 ar  
    11     5     7 1   
    12     6    17 1   
    13     7    10 1   
    14     7    18 1   
    15     7    19 1   
    16     8     9 1   
    17     8    10 1   
    18     8    11 2   
    19     9    12 1   
    20     9    20 1   
    21    12    21 1   
@<TRIPOS>SUBSTRUCTURE
     1 N9J         1 TEMP              0 ****  ****    0 ROOT
