@<TRIPOS>MOLECULE
N9K
   26    26     1     0     0
SMALL
No Charge or Current Charge


@<TRIPOS>ATOM
      1 C24          3.1120     0.4860    -0.0130 c          1 N9K       0.692000
      2 C26          0.6950     0.6200     0.8400 c3         1 N9K      -0.018100
      3 C28         -1.5950    -0.4200     1.2690 ca         1 N9K      -0.070000
      4 C25          1.6210     0.0150    -0.2480 c3         1 N9K       0.028500
      5 C27         -0.7940     0.4740     0.5300 ca         1 N9K      -0.063300
      6 C29         -2.9680    -0.5420     0.9880 ca         1 N9K      -0.182000
      7 C30         -3.5460     0.2290    -0.0330 ca         1 N9K       0.102100
      8 C32         -2.7560     1.1210    -0.7720 ca         1 N9K      -0.182000
      9 C33         -1.3830     1.2450    -0.4920 ca         1 N9K      -0.070000
     10 N34          1.4390    -1.4800    -0.3100 n7         1 N9K      -0.860400
     11 O31         -4.8750     0.1140    -0.3090 oh         1 N9K      -0.552100
     12 O61          3.7090     0.0760     0.9760 o          1 N9K      -0.732000
     13 O1           3.6370     1.1980    -0.8600 o          1 N9K      -0.732000
     14 H1           0.9340     0.1710     1.8120 hc         1 N9K       0.049700
     15 H2           0.9300     1.6870     0.9410 hc         1 N9K       0.049700
     16 H4           1.3120     0.4510    -1.2080 h1         1 N9K       0.044700
     17 H5          -3.5740    -1.2360     1.5650 ha         1 N9K       0.102000
     18 H6          -3.2040     1.7190    -1.5620 ha         1 N9K       0.102000
     19 H7          -0.7770     1.9410    -1.0680 ha         1 N9K       0.115000
     20 H8           3.1710    -1.9960    -1.4360 h1         1 N9K       0.013033
     21 H9           1.8900    -3.2290    -1.4250 h1         1 N9K       0.013033
     22 H10          1.6940    -1.7560    -2.4030 h1         1 N9K       0.013033
     23 H11          1.8400    -1.8760     0.5510 hn         1 N9K       0.408000
     24 H13         -5.2600    -0.5510     0.3010 ho         1 N9K       0.450000
     25 C35          2.0840    -2.1490    -1.4540 c3         1 N9K       0.161100
     26 H3          -1.1540    -1.0210     2.0610 ha         1 N9K       0.115000
@<TRIPOS>BOND
     1     1     4 1   
     2     1    12 1   
     3     1    13 1   
     4     2     4 1   
     5     2     5 1   
     6     2    14 1   
     7     2    15 1   
     8     3     5 ar  
     9     3     6 ar  
    10     3    26 1   
    11     4    10 1   
    12     4    16 1   
    13     5     9 ar  
    14     6     7 ar  
    15     6    17 1   
    16     7     8 ar  
    17     7    11 1   
    18     8     9 ar  
    19     8    18 1   
    20     9    19 1   
    21    10    23 1   
    22    10    25 1   
    23    11    24 1   
    24    20    25 1   
    25    21    25 1   
    26    22    25 1   
@<TRIPOS>SUBSTRUCTURE
     1 N9K         1 TEMP              0 ****  ****    0 ROOT
