@<TRIPOS>MOLECULE
N9K
   26    26     1     0     0
SMALL
bcc


@<TRIPOS>ATOM
      1 C24          3.0840     0.4140    -0.0440 c          1 N9K       0.902600
      2 C26          0.7290     0.7420     0.7240 c3         1 N9K      -0.018100
      3 C28         -1.4560    -0.4720     1.0800 ca         1 N9K      -0.088000
      4 C25          1.6140    -0.0180    -0.2790 c3         1 N9K       0.028500
      5 C27         -0.7390     0.5570     0.4780 ca         1 N9K      -0.063300
      6 C29         -2.8100    -0.6580     0.8330 ca         1 N9K      -0.200000
      7 C30         -3.4810     0.1920    -0.0420 ca         1 N9K       0.102100
      8 C32         -2.7800     1.2260    -0.6570 ca         1 N9K      -0.200000
      9 C33         -1.4300     1.3970    -0.3930 ca         1 N9K      -0.088000
     10 N34          1.3680    -1.4400    -0.1740 n7         1 N9K      -0.805200
     11 O31         -4.7970     0.0630    -0.3200 oh         1 N9K      -0.513100
     12 O61          3.7780    -0.3200     0.6880 o          1 N9K      -0.837300
     13 O1           3.4370     1.4900    -0.5680 o          1 N9K      -0.837300
     14 H1           0.9840     0.4120     1.7360 hc         1 N9K       0.049700
     15 H2           0.9790     1.8050     0.6710 hc         1 N9K       0.049700
     16 H4           1.3170     0.3000    -1.2860 h1         1 N9K       0.044700
     17 H5          -3.3420    -1.4660     1.3220 ha         1 N9K       0.120000
     18 H6          -3.2960     1.8960    -1.3360 ha         1 N9K       0.120000
     19 H7          -0.9020     2.2110    -0.8770 ha         1 N9K       0.133000
     20 H8           3.0450    -2.0720    -1.3680 h1         1 N9K       0.013033
     21 H9           1.7670    -3.2640    -1.1100 h1         1 N9K       0.013033
     22 H10          1.4970    -1.9150    -2.2040 h1         1 N9K       0.013033
     23 H11          1.7740    -1.7580     0.6990 hn         1 N9K       0.352800
     24 H13         -5.1660    -0.6870     0.1580 ho         1 N9K       0.411000
     25 C35          1.9600    -2.2000    -1.2560 c3         1 N9K       0.161100
     26 H3          -0.9530    -1.1450     1.7630 ha         1 N9K       0.133000
@<TRIPOS>BOND
     1     1     4 1   
     2     1    12 1   
     3     1    13 1   
     4     2     4 1   
     5     2     5 1   
     6     2    14 1   
     7     2    15 1   
     8     3     5 ar  
     9     3     6 ar  
    10     3    26 1   
    11     4    10 1   
    12     4    16 1   
    13     5     9 ar  
    14     6     7 ar  
    15     6    17 1   
    16     7     8 ar  
    17     7    11 1   
    18     8     9 ar  
    19     8    18 1   
    20     9    19 1   
    21    10    23 1   
    22    10    25 1   
    23    11    24 1   
    24    20    25 1   
    25    21    25 1   
    26    22    25 1   
@<TRIPOS>SUBSTRUCTURE
     1 N9K         1 TEMP              0 ****  ****    0 ROOT
