@<TRIPOS>MOLECULE
N9L
   29    30     1     0     0
SMALL
abcg2


@<TRIPOS>ATOM
      1 C01        -56.7490    26.5640     0.3970 c2         1 N9L      -0.223000
      2 O02        -54.2320    25.2910    -0.0670 o          1 N9L      -0.587100
      3 C03        -56.4160    25.3820     0.9050 ce         1 N9L      -0.301200
      4 C04        -55.0910    24.7620     0.6310 c          1 N9L       0.612300
      5 N05        -54.0370    21.5790     1.9640 nb         1 N9L      -0.732000
      6 C06        -53.0590    20.6740     1.9990 ca         1 N9L       0.367900
      7 C07        -51.8700    20.8000     1.2990 ca         1 N9L      -0.189000
      8 C08        -51.6730    21.9350     0.5060 cp         1 N9L       0.033000
      9 C09        -52.6910    22.8880     0.4640 ca         1 N9L      -0.172000
     10 C10        -53.8490    22.6660     1.2100 ca         1 N9L       0.475900
     11 N11        -54.9350    23.5450     1.2360 ns         1 N9L      -0.320900
     12 C12        -50.4290    22.1250    -0.2720 cp         1 N9L      -0.049000
     13 C13        -49.7460    21.0260    -0.8040 ca         1 N9L      -0.090000
     14 C14        -48.5830    21.2030    -1.5430 ca         1 N9L      -0.113500
     15 C15        -48.0780    22.4810    -1.7580 ca         1 N9L      -0.101000
     16 C16        -48.7460    23.5820    -1.2300 ca         1 N9L      -0.113500
     17 C17        -49.9130    23.4060    -0.4970 ca         1 N9L      -0.090000
     18 H1         -56.0600    27.1110    -0.2360 ha         1 N9L       0.179500
     19 H2         -57.7140    27.0100     0.5980 ha         1 N9L       0.179500
     20 H4         -57.1040    24.8340     1.5390 ha         1 N9L       0.182000
     21 H7         -51.1100    20.0370     1.3870 ha         1 N9L       0.126000
     22 H8         -52.6090    23.7720    -0.1430 ha         1 N9L       0.159000
     23 H9         -55.7020    23.2080     1.8010 hn         1 N9L       0.167000
     24 H10        -50.1370    20.0270    -0.6570 ha         1 N9L       0.118000
     25 H11        -48.0740    20.3410    -1.9550 ha         1 N9L       0.115000
     26 H12        -47.1710    22.6190    -2.3330 ha         1 N9L       0.114000
     27 H13        -48.3570    24.5800    -1.3860 ha         1 N9L       0.115000
     28 H14        -50.4150    24.2680    -0.0790 ha         1 N9L       0.118000
     29 H6         -53.2340    19.8050     2.6230 h4         1 N9L       0.019100
@<TRIPOS>BOND
     1     1     3 2   
     2     1    18 1   
     3     1    19 1   
     4     2     4 2   
     5     3     4 1   
     6     3    20 1   
     7     4    11 1   
     8     5     6 ar  
     9     5    10 ar  
    10     6     7 ar  
    11     6    29 1   
    12     7     8 ar  
    13     7    21 1   
    14     8     9 ar  
    15     8    12 1   
    16     9    10 ar  
    17     9    22 1   
    18    10    11 1   
    19    11    23 1   
    20    12    13 ar  
    21    12    17 ar  
    22    13    14 ar  
    23    13    24 1   
    24    14    15 ar  
    25    14    25 1   
    26    15    16 ar  
    27    15    26 1   
    28    16    17 ar  
    29    16    27 1   
    30    17    28 1   
@<TRIPOS>SUBSTRUCTURE
     1 N9L         1 TEMP              0 ****  ****    0 ROOT
