@<TRIPOS>MOLECULE
N9L
   29    30     1     0     0
SMALL
No Charge or Current Charge


@<TRIPOS>ATOM
      1 C01        -56.9000    26.6370     0.5690 c2         1 N9L      -0.223000
      2 O02        -54.2520    25.4840     0.1690 o          1 N9L      -0.587100
      3 C03        -56.5250    25.3690     0.8740 ce         1 N9L      -0.301200
      4 C04        -55.1470    24.8260     0.6790 c          1 N9L       0.612300
      5 N05        -54.0680    21.6420     1.9510 nb         1 N9L      -0.732000
      6 C06        -53.0740    20.7320     2.0420 ca         1 N9L       0.367900
      7 C07        -51.8680    20.8450     1.3340 ca         1 N9L      -0.189000
      8 C08        -51.6470    21.9460     0.4750 cp         1 N9L       0.033000
      9 C09        -52.6970    22.8900     0.3900 ca         1 N9L      -0.172000
     10 C10        -53.8720    22.6990     1.1420 ca         1 N9L       0.475900
     11 N11        -54.9860    23.5450     1.1470 ns         1 N9L      -0.320900
     12 C12        -50.3770    22.1030    -0.3030 cp         1 N9L      -0.049000
     13 C13        -49.6670    20.9710    -0.7830 ca         1 N9L      -0.090000
     14 C14        -48.4750    21.1170    -1.5140 ca         1 N9L      -0.113500
     15 C15        -47.9660    22.3980    -1.7810 ca         1 N9L      -0.101000
     16 C16        -48.6500    23.5320    -1.3160 ca         1 N9L      -0.113500
     17 C17        -49.8420    23.3860    -0.5860 ca         1 N9L      -0.090000
     18 H1         -56.2030    27.3600     0.1400 ha         1 N9L       0.179500
     19 H2         -57.9180    26.9910     0.7380 ha         1 N9L       0.179500
     20 H4         -57.2460    24.6780     1.3090 ha         1 N9L       0.182000
     21 H7         -51.1070    20.0820     1.4670 ha         1 N9L       0.126000
     22 H8         -52.6020    23.7410    -0.2730 ha         1 N9L       0.159000
     23 H9         -55.8010    23.1380     1.5830 hn         1 N9L       0.167000
     24 H10        -50.0500    19.9710    -0.6000 ha         1 N9L       0.118000
     25 H11        -47.9490    20.2370    -1.8760 ha         1 N9L       0.115000
     26 H12        -47.0430    22.5110    -2.3460 ha         1 N9L       0.114000
     27 H13        -48.2550    24.5260    -1.5180 ha         1 N9L       0.115000
     28 H14        -50.3470    24.2790    -0.2240 ha         1 N9L       0.118000
     29 H6         -53.2490    19.8870     2.7070 h4         1 N9L       0.019100
@<TRIPOS>BOND
     1     1     3 2   
     2     1    18 1   
     3     1    19 1   
     4     2     4 2   
     5     3     4 1   
     6     3    20 1   
     7     4    11 1   
     8     5     6 ar  
     9     5    10 ar  
    10     6     7 ar  
    11     6    29 1   
    12     7     8 ar  
    13     7    21 1   
    14     8     9 ar  
    15     8    12 1   
    16     9    10 ar  
    17     9    22 1   
    18    10    11 1   
    19    11    23 1   
    20    12    13 ar  
    21    12    17 ar  
    22    13    14 ar  
    23    13    24 1   
    24    14    15 ar  
    25    14    25 1   
    26    15    16 ar  
    27    15    26 1   
    28    16    17 ar  
    29    16    27 1   
    30    17    28 1   
@<TRIPOS>SUBSTRUCTURE
     1 N9L         1 TEMP              0 ****  ****    0 ROOT
