@<TRIPOS>MOLECULE
N9M
   23    23     1     0     0
SMALL
No Charge or Current Charge


@<TRIPOS>ATOM
      1 CAA          1.6820   -11.3610   -32.1100 ca         1 N9M      -0.122000
      2 CAB          1.2180   -11.0300   -30.8260 ca         1 N9M      -0.114000
      3 CAC          2.0910   -11.0950   -29.7270 ca         1 N9M      -0.122000
      4 CAD          3.4270   -11.4930   -29.9110 ca         1 N9M      -0.085500
      5 CAE          3.8980   -11.8280   -31.1970 ca         1 N9M      -0.079300
      6 CAF          3.0180   -11.7580   -32.2950 ca         1 N9M      -0.085500
      7 CAG          5.3450   -12.2610   -31.3970 c3         1 N9M       0.220900
      8 CAI          7.4750   -11.2680   -31.8710 c          1 N9M       0.601100
      9 CAM         10.2320    -9.8270   -31.0490 c          1 N9M       0.801100
     10 NAK          8.0660   -10.0430   -32.1090 ns         1 N9M      -0.256400
     11 OAH          6.1380   -11.0910   -31.6610 os         1 N9M      -0.471100
     12 OAJ          8.0570   -12.3450   -31.8600 o          1 N9M      -0.520000
     13 OAL          9.5220    -9.9800   -32.2220 os         1 N9M      -0.341200
     14 OAN         11.4490    -9.8040   -31.1360 o          1 N9M      -0.686500
     15 H1           1.0080   -11.3090   -32.9620 ha         1 N9M       0.105000
     16 H2           0.1850   -10.7220   -30.6830 ha         1 N9M       0.101000
     17 H3           1.7340   -10.8380   -28.7320 ha         1 N9M       0.105000
     18 H4           4.0980   -11.5380   -29.0550 ha         1 N9M       0.119000
     19 H5           3.3710   -12.0110   -33.2930 ha         1 N9M       0.119000
     20 H6           5.7010   -12.7770   -30.4950 h1         1 N9M       0.053200
     21 H7           5.4030   -12.9680   -32.2350 h1         1 N9M       0.053200
     22 H9           7.5620    -9.1660   -32.0380 hn         1 N9M       0.292500
     23 OXT          9.6380    -9.6960   -29.9880 o          1 N9M      -0.686500
@<TRIPOS>BOND
     1     1     2 ar  
     2     1     6 ar  
     3     1    15 1   
     4     2     3 ar  
     5     2    16 1   
     6     3     4 ar  
     7     3    17 1   
     8     4     5 ar  
     9     4    18 1   
    10     5     6 ar  
    11     5     7 1   
    12     6    19 1   
    13     7    11 1   
    14     7    20 1   
    15     7    21 1   
    16     8    10 1   
    17     8    11 1   
    18     8    12 2   
    19     9    13 1   
    20     9    14 1   
    21     9    23 1   
    22    10    13 1   
    23    10    22 1   
@<TRIPOS>SUBSTRUCTURE
     1 N9M         1 TEMP              0 ****  ****    0 ROOT
