@<TRIPOS>MOLECULE
N9M
   23    23     1     0     0
SMALL
abcg2


@<TRIPOS>ATOM
      1 CAA          1.7520   -11.3630   -32.0750 ca         1 N9M      -0.122000
      2 CAB          1.3190   -10.9990   -30.8030 ca         1 N9M      -0.114000
      3 CAC          2.2020   -11.0500   -29.7290 ca         1 N9M      -0.122000
      4 CAD          3.5150   -11.4630   -29.9270 ca         1 N9M      -0.085500
      5 CAE          3.9580   -11.8260   -31.1990 ca         1 N9M      -0.079300
      6 CAF          3.0660   -11.7750   -32.2700 ca         1 N9M      -0.085500
      7 CAG          5.3780   -12.2500   -31.4150 c3         1 N9M       0.220900
      8 CAI          7.4630   -11.2490   -31.9520 c          1 N9M       0.601100
      9 CAM          9.9730    -9.8850   -30.9150 c          1 N9M       0.801100
     10 NAK          8.0360   -10.0580   -32.3330 ns         1 N9M      -0.256400
     11 OAH          6.1540   -11.0550   -31.7160 os         1 N9M      -0.471100
     12 OAJ          8.0290   -12.3210   -31.9040 o          1 N9M      -0.520000
     13 OAL          9.4220   -10.0020   -32.2750 os         1 N9M      -0.341200
     14 OAN         11.2050    -9.8700   -30.9580 o          1 N9M      -0.686500
     15 H1           1.0660   -11.3300   -32.9130 ha         1 N9M       0.105000
     16 H2           0.2950   -10.6820   -30.6490 ha         1 N9M       0.101000
     17 H3           1.8670   -10.7730   -28.7370 ha         1 N9M       0.105000
     18 H4           4.2020   -11.5080   -29.0910 ha         1 N9M       0.119000
     19 H5           3.4030   -12.0620   -33.2590 ha         1 N9M       0.119000
     20 H6           5.7970   -12.7150   -30.5240 h1         1 N9M       0.053200
     21 H7           5.4670   -12.9390   -32.2540 h1         1 N9M       0.053200
     22 H9           7.5980    -9.2270   -31.9530 hn         1 N9M       0.292500
     23 OXT          9.1530    -9.8110   -29.9990 o          1 N9M      -0.686500
@<TRIPOS>BOND
     1     1     2 ar  
     2     1     6 ar  
     3     1    15 1   
     4     2     3 ar  
     5     2    16 1   
     6     3     4 ar  
     7     3    17 1   
     8     4     5 ar  
     9     4    18 1   
    10     5     6 ar  
    11     5     7 1   
    12     6    19 1   
    13     7    11 1   
    14     7    20 1   
    15     7    21 1   
    16     8    10 1   
    17     8    11 1   
    18     8    12 2   
    19     9    13 1   
    20     9    14 1   
    21     9    23 1   
    22    10    13 1   
    23    10    22 1   
@<TRIPOS>SUBSTRUCTURE
     1 N9M         1 TEMP              0 ****  ****    0 ROOT
