@<TRIPOS>MOLECULE
N9N
   28    29     1     0     0
SMALL
bcc


@<TRIPOS>ATOM
      1 C10         83.0270    36.6800    33.5040 ca         1 N9N      -0.290600
      2 C13         82.6490    34.2450    32.1690 ca         1 N9N       0.193100
      3 C15         81.7270    36.1860    33.2610 ca         1 N9N       0.177100
      4 C02         86.8730    39.3130    35.8570 ca         1 N9N       0.168100
      5 C03         86.5370    37.9620    35.9420 ca         1 N9N      -0.209500
      6 C04         85.3570    37.5080    35.3810 ca         1 N9N      -0.041500
      7 C05         84.4830    38.3840    34.7400 ca         1 N9N      -0.204600
      8 C06         84.8170    39.7410    34.6900 ca         1 N9N      -0.041500
      9 C07         86.0030    40.2020    35.2230 ca         1 N9N      -0.209500
     10 C08         83.1730    37.9530    34.2060 c          1 N9N       0.627300
     11 O09         82.1970    38.6930    34.3680 o          1 N9N      -0.582100
     12 C11         84.1170    35.9410    33.0200 ca         1 N9N      -0.035000
     13 C12         83.9390    34.7460    32.3650 ca         1 N9N      -0.199000
     14 C14         81.5460    34.9640    32.6190 ca         1 N9N      -0.027900
     15 O16         80.6180    36.8350    33.6270 oh         1 N9N      -0.530100
     16 O17         80.3200    34.4330    32.3940 oh         1 N9N      -0.521100
     17 O18         82.5060    33.0770    31.5310 oh         1 N9N      -0.486100
     18 H1          88.5330    39.1130    36.7760 ho         1 N9N       0.431000
     19 H2          87.1930    37.2660    36.4520 ha         1 N9N       0.144500
     20 H3          85.1080    36.4590    35.4780 ha         1 N9N       0.145000
     21 H4          84.1480    40.4430    34.2100 ha         1 N9N       0.145000
     22 H5          86.2610    41.2510    35.1570 ha         1 N9N       0.144500
     23 H6          85.1200    36.3230    33.1360 ha         1 N9N       0.143000
     24 H7          84.7870    34.1900    31.9870 ha         1 N9N       0.155000
     25 H8          80.9020    37.7190    33.9620 ho         1 N9N       0.487000
     26 H9          79.6270    35.0730    32.5960 ho         1 N9N       0.453000
     27 H10         81.5730    32.8420    31.4450 ho         1 N9N       0.452000
     28 O01         88.0070    39.8110    36.3680 oh         1 N9N      -0.487100
@<TRIPOS>BOND
     1     1     3 ar  
     2     1    10 1   
     3     1    12 ar  
     4     2    13 ar  
     5     2    14 ar  
     6     2    17 1   
     7     3    14 ar  
     8     3    15 1   
     9     4     5 ar  
    10     4     9 ar  
    11     4    28 1   
    12     5     6 ar  
    13     5    19 1   
    14     6     7 ar  
    15     6    20 1   
    16     7     8 ar  
    17     7    10 1   
    18     8     9 ar  
    19     8    21 1   
    20     9    22 1   
    21    10    11 2   
    22    12    13 ar  
    23    12    23 1   
    24    13    24 1   
    25    14    16 1   
    26    15    25 1   
    27    16    26 1   
    28    17    27 1   
    29    18    28 1   
@<TRIPOS>SUBSTRUCTURE
     1 N9N         1 TEMP              0 ****  ****    0 ROOT
