@<TRIPOS>MOLECULE
N9N
   28    29     1     0     0
SMALL
No Charge or Current Charge


@<TRIPOS>ATOM
      1 C10         82.9850    36.7470    33.3950 ca         1 N9N      -0.290600
      2 C13         82.7190    34.2220    32.1530 ca         1 N9N       0.193100
      3 C15         81.7180    36.1320    33.2800 ca         1 N9N       0.177100
      4 C02         86.8700    39.2540    35.9110 ca         1 N9N       0.168100
      5 C03         86.4460    37.9190    35.9770 ca         1 N9N      -0.191500
      6 C04         85.2350    37.5340    35.3750 ca         1 N9N      -0.023500
      7 C05         84.4450    38.4850    34.6910 ca         1 N9N      -0.204600
      8 C06         84.8720    39.8290    34.6490 ca         1 N9N      -0.023500
      9 C07         86.0840    40.2070    35.2520 ca         1 N9N      -0.191500
     10 C08         83.1330    38.0980    34.0560 c          1 N9N       0.627300
     11 O09         82.1780    38.8680    34.0940 o          1 N9N      -0.582100
     12 C11         84.1110    36.0900    32.8440 ca         1 N9N      -0.017000
     13 C12         83.9760    34.8320    32.2330 ca         1 N9N      -0.181000
     14 C14         81.5840    34.8680    32.6710 ca         1 N9N      -0.027900
     15 O16         80.5990    36.7550    33.7560 oh         1 N9N      -0.569100
     16 O17         80.3450    34.2780    32.5780 oh         1 N9N      -0.560100
     17 O18         82.5810    33.0030    31.5620 oh         1 N9N      -0.525100
     18 H1          88.4520    38.8440    36.9050 ho         1 N9N       0.470000
     19 H2          87.0440    37.1740    36.4960 ha         1 N9N       0.126500
     20 H3          84.9090    36.4980    35.4530 ha         1 N9N       0.127000
     21 H4          84.2680    40.5810    34.1420 ha         1 N9N       0.127000
     22 H5          86.4100    41.2430    35.2090 ha         1 N9N       0.126500
     23 H6          85.0970    36.5530    32.8740 ha         1 N9N       0.125000
     24 H7          84.8480    34.3340    31.8170 ha         1 N9N       0.137000
     25 H8          80.8750    37.6800    33.9840 ho         1 N9N       0.526000
     26 H9          79.7000    34.8980    32.9960 ho         1 N9N       0.492000
     27 H10         81.6220    32.7930    31.6200 ho         1 N9N       0.491000
     28 O01         88.0420    39.6340    36.4930 oh         1 N9N      -0.526100
@<TRIPOS>BOND
     1     1     3 ar  
     2     1    10 1   
     3     1    12 ar  
     4     2    13 ar  
     5     2    14 ar  
     6     2    17 1   
     7     3    14 ar  
     8     3    15 1   
     9     4     5 ar  
    10     4     9 ar  
    11     4    28 1   
    12     5     6 ar  
    13     5    19 1   
    14     6     7 ar  
    15     6    20 1   
    16     7     8 ar  
    17     7    10 1   
    18     8     9 ar  
    19     8    21 1   
    20     9    22 1   
    21    10    11 2   
    22    12    13 ar  
    23    12    23 1   
    24    13    24 1   
    25    14    16 1   
    26    15    25 1   
    27    16    26 1   
    28    17    27 1   
    29    18    28 1   
@<TRIPOS>SUBSTRUCTURE
     1 N9N         1 TEMP              0 ****  ****    0 ROOT
