@<TRIPOS>MOLECULE
N9O
   67    71     1     0     0
SMALL
No Charge or Current Charge


@<TRIPOS>ATOM
      1 N1          15.7650    30.1670    -8.0380 ns         1 N9O      -0.530900
      2 C7          17.4290    25.1500   -12.7420 c3         1 N9O      -0.066400
      3 C8          18.3750    23.9540   -13.0160 c3         1 N9O      -0.157400
      4 N2          20.7940    24.2930   -12.7520 ns         1 N9O      -0.508900
      5 C9          19.7190    24.3950   -13.6070 c          1 N9O       0.595100
      6 C1          16.6480    29.6400   -10.1800 c5         1 N9O       0.094700
      7 C5          16.9860    27.3020   -11.3910 c3         1 N9O      -0.059400
      8 C6          17.9660    26.1420   -11.6840 c3         1 N9O      -0.080400
      9 N3          24.2690    23.9090   -14.3240 n          1 N9O      -0.372400
     10 C4          17.5160    28.3410   -10.3660 c5         1 N9O       0.075300
     11 C3          18.0130    29.3180    -8.0400 c5         1 N9O       0.036600
     12 O3          19.8350    24.7810   -14.7610 o          1 N9O      -0.596100
     13 C2          17.0230    30.2800    -8.7800 c5         1 N9O       0.107700
     14 N           15.2590    29.2160    -9.9640 ns         1 N9O      -0.509900
     15 S           17.6730    27.6110    -8.6730 ss         1 N9O      -0.406000
     16 C           14.7980    29.5230    -8.7310 c          1 N9O       0.615000
     17 O           13.6830    29.2760    -8.3150 o          1 N9O      -0.578000
     18 C10         22.1790    24.6380   -13.0980 c3         1 N9O       0.085000
     19 C11         22.8330    23.6100   -14.0450 c3         1 N9O       0.067000
     20 C20         24.5780    24.7040   -15.4360 c          1 N9O       0.594600
     21 C19         26.0300    24.9650   -15.7230 ca         1 N9O      -0.213600
     22 C18         27.0390    24.4230   -14.9070 ca         1 N9O       0.053000
     23 C13         26.6820    23.6270   -13.8000 ca         1 N9O      -0.176600
     24 C12         25.2400    23.3450   -13.4850 c          1 N9O       0.591600
     25 O2          24.9310    22.6540   -12.5220 o          1 N9O      -0.537000
     26 C21         26.3860    25.7660   -16.8270 ca         1 N9O       0.024000
     27 C22         27.7330    26.0180   -17.1130 ca         1 N9O      -0.219000
     28 C23         28.7500    25.4800   -16.3120 ca         1 N9O       0.365000
     29 C25         30.9280    24.6930   -17.2740 c3         1 N9O       0.190100
     30 C24         30.5610    27.1440   -16.8140 c3         1 N9O       0.190100
     31 C17         28.4050    24.6790   -15.1940 ca         1 N9O      -0.090000
     32 C16         29.4000    24.1400   -14.3480 ca         1 N9O      -0.044000
     33 C15         29.0430    23.3490   -13.2480 ca         1 N9O      -0.150000
     34 C14         27.6930    23.0900   -12.9750 ca         1 N9O      -0.010000
     35 H1          15.5830    30.4680    -7.0890 hn         1 N9O       0.344500
     36 H2          17.2410    25.6850   -13.6810 hc         1 N9O       0.051200
     37 H3          16.4600    24.7590   -12.4050 hc         1 N9O       0.051200
     38 H4          17.8820    23.2920   -13.7370 hc         1 N9O       0.059200
     39 H5          18.5340    23.4140   -12.0750 hc         1 N9O       0.059200
     40 H6          20.6000    23.9580   -11.8150 hn         1 N9O       0.313500
     41 H7          16.7470    30.3450   -11.0160 h1         1 N9O       0.060700
     42 H8          16.7670    27.8150   -12.3360 hc         1 N9O       0.053200
     43 H9          16.0380    26.8770   -11.0410 hc         1 N9O       0.053200
     44 H10         18.1730    25.5960   -10.7550 hc         1 N9O       0.047700
     45 H11         18.9200    26.5620   -12.0270 hc         1 N9O       0.047700
     46 H12         18.5220    28.6410   -10.6920 h1         1 N9O       0.070700
     47 H13         17.9110    29.3610    -6.9470 h1         1 N9O       0.077200
     48 H14         19.0510    29.5790    -8.2860 h1         1 N9O       0.077200
     49 H15         17.3910    31.3130    -8.8500 h1         1 N9O       0.062700
     50 H16         14.6550    28.7350   -10.6180 hn         1 N9O       0.335500
     51 H17         22.7640    24.6980   -12.1710 h1         1 N9O       0.065700
     52 H18         22.1940    25.6300   -13.5700 h1         1 N9O       0.065700
     53 H19         22.2690    23.5750   -14.9850 h1         1 N9O       0.073700
     54 H20         22.7410    22.6100   -13.6010 h1         1 N9O       0.073700
     55 H21         25.6210    26.1960   -17.4720 ha         1 N9O       0.139000
     56 H22         27.9900    26.6270   -17.9740 ha         1 N9O       0.123000
     57 H23         30.4540    23.7080   -17.1590 h1         1 N9O       0.041533
     58 H24         31.0700    24.8820   -18.3470 h1         1 N9O       0.041533
     59 H25         31.9120    24.6540   -16.7880 h1         1 N9O       0.041533
     60 H26         31.6130    27.2310   -16.5120 h1         1 N9O       0.041533
     61 H27         30.4660    27.4760   -17.8570 h1         1 N9O       0.041533
     62 H28         29.9720    27.8190   -16.1770 h1         1 N9O       0.041533
     63 H29         30.4540    24.3340   -14.5300 ha         1 N9O       0.124000
     64 H30         29.8160    22.9360   -12.6030 ha         1 N9O       0.123000
     65 H31         27.4380    22.4730   -12.1150 ha         1 N9O       0.139000
     66 N4          30.0930    25.7500   -16.6650 nh         1 N9O      -0.807400
     67 O1          23.7030    25.1800   -16.1480 o          1 N9O      -0.515000
@<TRIPOS>BOND
     1     1    13 1   
     2     1    16 1   
     3     1    35 1   
     4     2     3 1   
     5     2     8 1   
     6     2    36 1   
     7     2    37 1   
     8     3     5 1   
     9     3    38 1   
    10     3    39 1   
    11     4     5 1   
    12     4    18 1   
    13     4    40 1   
    14     5    12 2   
    15     6    10 1   
    16     6    13 1   
    17     6    14 1   
    18     6    41 1   
    19     7     8 1   
    20     7    10 1   
    21     7    42 1   
    22     7    43 1   
    23     8    44 1   
    24     8    45 1   
    25     9    19 1   
    26     9    20 1   
    27     9    24 1   
    28    10    15 1   
    29    10    46 1   
    30    11    13 1   
    31    11    15 1   
    32    11    47 1   
    33    11    48 1   
    34    13    49 1   
    35    14    16 1   
    36    14    50 1   
    37    16    17 2   
    38    18    19 1   
    39    18    51 1   
    40    18    52 1   
    41    19    53 1   
    42    19    54 1   
    43    20    21 1   
    44    20    67 2   
    45    21    22 ar  
    46    21    26 ar  
    47    22    23 ar  
    48    22    31 ar  
    49    23    24 1   
    50    23    34 ar  
    51    24    25 2   
    52    26    27 ar  
    53    26    55 1   
    54    27    28 ar  
    55    27    56 1   
    56    28    31 ar  
    57    28    66 1   
    58    29    57 1   
    59    29    58 1   
    60    29    59 1   
    61    29    66 1   
    62    30    60 1   
    63    30    61 1   
    64    30    62 1   
    65    30    66 1   
    66    31    32 ar  
    67    32    33 ar  
    68    32    63 1   
    69    33    34 ar  
    70    33    64 1   
    71    34    65 1   
@<TRIPOS>SUBSTRUCTURE
     1 N9O         1 TEMP              0 ****  ****    0 ROOT
