@<TRIPOS>MOLECULE
N9O
   67    71     1     0     0
SMALL
abcg2


@<TRIPOS>ATOM
      1 N1          15.5080    29.6360    -7.7370 ns         1 N9O      -0.530900
      2 C7          17.5600    25.5370   -12.9760 c3         1 N9O      -0.066400
      3 C8          18.4770    24.3740   -13.3490 c3         1 N9O      -0.157400
      4 N2          20.8700    24.5350   -13.0260 ns         1 N9O      -0.508900
      5 C9          19.8320    24.8530   -13.8230 c          1 N9O       0.595100
      6 C1          16.5750    29.3930    -9.8000 c5         1 N9O       0.094700
      7 C5          17.0540    27.4000   -11.3450 c3         1 N9O      -0.059400
      8 C6          18.0530    26.3330   -11.7720 c3         1 N9O      -0.080400
      9 N3          24.3310    24.0300   -14.3590 n          1 N9O      -0.372400
     10 C4          17.5190    28.2400   -10.1690 c5         1 N9O       0.075300
     11 C3          17.8500    28.8230    -7.7100 c5         1 N9O       0.036600
     12 O3          19.9610    25.5040   -14.8510 o          1 N9O      -0.596100
     13 C2          16.8180    29.7840    -8.3100 c5         1 N9O       0.107700
     14 N           15.1850    29.0130    -9.8080 ns         1 N9O      -0.509900
     15 S           17.6880    27.2730    -8.6320 ss         1 N9O      -0.406000
     16 C           14.5560    29.2420    -8.6190 c          1 N9O       0.615000
     17 O           13.3640    29.1060    -8.3950 o          1 N9O      -0.578000
     18 C10         22.2410    24.8670   -13.3250 c3         1 N9O       0.085000
     19 C11         22.9250    23.7390   -14.0960 c3         1 N9O       0.067000
     20 C20         24.6480    24.6840   -15.5480 c          1 N9O       0.594600
     21 C19         26.0640    24.9240   -15.8140 ca         1 N9O      -0.213600
     22 C18         27.0500    24.5480   -14.8810 ca         1 N9O       0.053000
     23 C13         26.6660    23.9780   -13.6500 ca         1 N9O      -0.176600
     24 C12         25.2470    23.6980   -13.3740 c          1 N9O       0.591600
     25 O2          24.8770    23.1970   -12.3310 o          1 N9O      -0.537000
     26 C21         26.4520    25.5520   -16.9790 ca         1 N9O       0.024000
     27 C22         27.7940    25.7610   -17.2790 ca         1 N9O      -0.219000
     28 C23         28.8020    25.3400   -16.4190 ca         1 N9O       0.365000
     29 C25         31.0270    24.3460   -16.6770 c3         1 N9O       0.190100
     30 C24         30.4940    26.4240   -17.7760 c3         1 N9O       0.190100
     31 C17         28.4200    24.7850   -15.1480 ca         1 N9O      -0.090000
     32 C16         29.3480    24.5430   -14.1140 ca         1 N9O      -0.044000
     33 C15         28.9530    24.0090   -12.9120 ca         1 N9O      -0.150000
     34 C14         27.6080    23.7000   -12.6860 ca         1 N9O      -0.010000
     35 H1          15.2870    29.8950    -6.7910 hn         1 N9O       0.344500
     36 H2          17.4370    26.2000   -13.8360 hc         1 N9O       0.051200
     37 H3          16.5690    25.1320   -12.7580 hc         1 N9O       0.051200
     38 H4          18.0270    23.8050   -14.1660 hc         1 N9O       0.059200
     39 H5          18.5700    23.6920   -12.5000 hc         1 N9O       0.059200
     40 H6          20.6950    23.9720   -12.2090 hn         1 N9O       0.313500
     41 H7          16.7580    30.2350   -10.4750 h1         1 N9O       0.060700
     42 H8          16.8670    28.0730   -12.1890 hc         1 N9O       0.053200
     43 H9          16.0960    26.9330   -11.1010 hc         1 N9O       0.053200
     44 H10         18.2410    25.6450   -10.9410 hc         1 N9O       0.047700
     45 H11         19.0130    26.8060   -12.0000 hc         1 N9O       0.047700
     46 H12         18.5000    28.6720   -10.3990 h1         1 N9O       0.070700
     47 H13         17.6820    28.6540    -6.6470 h1         1 N9O       0.077200
     48 H14         18.8580    29.2220    -7.8370 h1         1 N9O       0.077200
     49 H15         17.1770    30.8110    -8.2120 h1         1 N9O       0.062700
     50 H16         14.6500    28.9950   -10.6600 hn         1 N9O       0.335500
     51 H17         22.7620    25.0530   -12.3860 h1         1 N9O       0.065700
     52 H18         22.2670    25.7900   -13.9030 h1         1 N9O       0.065700
     53 H19         22.4220    23.5780   -15.0460 h1         1 N9O       0.073700
     54 H20         22.8670    22.8110   -13.5300 h1         1 N9O       0.073700
     55 H21         25.7040    25.8620   -17.6970 ha         1 N9O       0.139000
     56 H22         28.0430    26.2100   -18.2300 ha         1 N9O       0.123000
     57 H23         30.6130    23.5350   -16.0840 h1         1 N9O       0.041533
     58 H24         31.2030    23.9550   -17.6840 h1         1 N9O       0.041533
     59 H25         31.9900    24.6300   -16.2490 h1         1 N9O       0.041533
     60 H26         31.5600    26.6340   -17.6950 h1         1 N9O       0.041533
     61 H27         30.3060    26.0380   -18.7850 h1         1 N9O       0.041533
     62 H28         29.9590    27.3650   -17.6570 h1         1 N9O       0.041533
     63 H29         30.3870    24.8080   -14.2490 ha         1 N9O       0.124000
     64 H30         29.6820    23.8380   -12.1320 ha         1 N9O       0.123000
     65 H31         27.3060    23.2670   -11.7420 ha         1 N9O       0.139000
     66 N4          30.1290    25.4910   -16.7340 nh         1 N9O      -0.807400
     67 O1          23.7670    25.0210   -16.3150 o          1 N9O      -0.515000
@<TRIPOS>BOND
     1     1    13 1   
     2     1    16 1   
     3     1    35 1   
     4     2     3 1   
     5     2     8 1   
     6     2    36 1   
     7     2    37 1   
     8     3     5 1   
     9     3    38 1   
    10     3    39 1   
    11     4     5 1   
    12     4    18 1   
    13     4    40 1   
    14     5    12 2   
    15     6    10 1   
    16     6    13 1   
    17     6    14 1   
    18     6    41 1   
    19     7     8 1   
    20     7    10 1   
    21     7    42 1   
    22     7    43 1   
    23     8    44 1   
    24     8    45 1   
    25     9    19 1   
    26     9    20 1   
    27     9    24 1   
    28    10    15 1   
    29    10    46 1   
    30    11    13 1   
    31    11    15 1   
    32    11    47 1   
    33    11    48 1   
    34    13    49 1   
    35    14    16 1   
    36    14    50 1   
    37    16    17 2   
    38    18    19 1   
    39    18    51 1   
    40    18    52 1   
    41    19    53 1   
    42    19    54 1   
    43    20    21 1   
    44    20    67 2   
    45    21    22 ar  
    46    21    26 ar  
    47    22    23 ar  
    48    22    31 ar  
    49    23    24 1   
    50    23    34 ar  
    51    24    25 2   
    52    26    27 ar  
    53    26    55 1   
    54    27    28 ar  
    55    27    56 1   
    56    28    31 ar  
    57    28    66 1   
    58    29    57 1   
    59    29    58 1   
    60    29    59 1   
    61    29    66 1   
    62    30    60 1   
    63    30    61 1   
    64    30    62 1   
    65    30    66 1   
    66    31    32 ar  
    67    32    33 ar  
    68    32    63 1   
    69    33    34 ar  
    70    33    64 1   
    71    34    65 1   
@<TRIPOS>SUBSTRUCTURE
     1 N9O         1 TEMP              0 ****  ****    0 ROOT
