@<TRIPOS>MOLECULE
N9P
   21    21     1     0     0
SMALL
bcc


@<TRIPOS>ATOM
      1 N           12.2870    -8.2760    -8.4570 n8         1 N9P      -0.887800
      2 CA          11.6950    -7.4310    -7.4340 c3         1 N9P       0.014500
      3 C           12.0300    -7.8020    -5.9610 c          1 N9P       0.905600
      4 O           11.6160    -6.9990    -5.0990 o          1 N9P      -0.834800
      5 CB          10.1700    -7.3910    -7.6190 c3         1 N9P      -0.026100
      6 CG           9.7680    -6.7510    -8.9100 ca         1 N9P       0.007700
      7 CD1          9.4040    -7.4880   -10.0320 ca         1 N9P      -0.243800
      8 CD2          9.7670    -5.3640    -9.0440 ca         1 N9P      -0.243800
      9 CE1          9.0680    -6.8250   -11.2030 ca         1 N9P       0.381200
     10 CE2          9.4170    -4.7960   -10.2580 ca         1 N9P       0.381200
     11 NZ           9.0710    -5.5030   -11.3290 nb         1 N9P      -0.701000
     12 O1          12.6710    -8.8510    -5.7640 o          1 N9P      -0.834800
     13 H1          13.2950    -8.2130    -8.3870 hn         1 N9P       0.327800
     14 H2          12.0790    -9.2410    -8.2270 hn         1 N9P       0.327800
     15 H4          12.0680    -6.4120    -7.5950 h1         1 N9P       0.041700
     16 H5           9.7310    -6.8360    -6.7900 hc         1 N9P       0.054700
     17 H6           9.7790    -8.4120    -7.5680 hc         1 N9P       0.054700
     18 H7           9.3760    -8.5690    -9.9980 ha         1 N9P       0.139500
     19 H8          10.0340    -4.7290    -8.2090 ha         1 N9P       0.139500
     20 H9           8.7820    -7.3940   -12.0820 h4         1 N9P      -0.002400
     21 H10          9.4120    -3.7160   -10.3680 h4         1 N9P      -0.002400
@<TRIPOS>BOND
     1     1     2 1   
     2     1    13 1   
     3     1    14 1   
     4     2     3 1   
     5     2     5 1   
     6     2    15 1   
     7     3     4 1   
     8     3    12 1   
     9     5     6 1   
    10     5    16 1   
    11     5    17 1   
    12     6     7 ar  
    13     6     8 ar  
    14     7     9 ar  
    15     7    18 1   
    16     8    10 ar  
    17     8    19 1   
    18     9    11 ar  
    19     9    20 1   
    20    10    11 ar  
    21    10    21 1   
@<TRIPOS>SUBSTRUCTURE
     1 N9P         1 TEMP              0 ****  ****    0 ROOT
