@<TRIPOS>MOLECULE
N9P
   21    21     1     0     0
SMALL
No Charge or Current Charge


@<TRIPOS>ATOM
      1 N           12.5000    -8.0520    -8.4390 n8         1 N9P      -0.887800
      2 CA          11.6890    -7.3820    -7.3480 c3         1 N9P       0.014500
      3 C           11.9640    -7.8570    -5.8570 c          1 N9P       0.905600
      4 O           12.3090    -7.0210    -5.0280 o          1 N9P      -0.834800
      5 CB          10.1700    -7.4640    -7.6590 c3         1 N9P      -0.026100
      6 CG           9.7650    -6.7830    -8.9640 ca         1 N9P       0.007700
      7 CD1          9.2810    -7.5210   -10.0570 ca         1 N9P      -0.243800
      8 CD2          9.8390    -5.3880    -9.1100 ca         1 N9P      -0.243800
      9 CE1          8.9090    -6.8530   -11.2330 ca         1 N9P       0.381200
     10 CE2          9.4460    -4.7970   -10.3210 ca         1 N9P       0.381200
     11 NZ           8.9860    -5.5100   -11.3730 nb         1 N9P      -0.701000
     12 O1          11.9330    -9.0580    -5.6030 o          1 N9P      -0.834800
     13 H1          13.4990    -7.9260    -8.2430 hn         1 N9P       0.327800
     14 H2          12.3600    -9.0660    -8.3750 hn         1 N9P       0.327800
     15 H4          11.9630    -6.3190    -7.3750 h1         1 N9P       0.041700
     16 H5           9.6210    -6.9970    -6.8330 hc         1 N9P       0.054700
     17 H6           9.8610    -8.5170    -7.6640 hc         1 N9P       0.054700
     18 H7           9.1950    -8.6030   -10.0060 ha         1 N9P       0.139500
     19 H8          10.1970    -4.7610    -8.2990 ha         1 N9P       0.139500
     20 H9           8.5350    -7.4080   -12.0930 h4         1 N9P      -0.002400
     21 H10          9.4990    -3.7170   -10.4540 h4         1 N9P      -0.002400
@<TRIPOS>BOND
     1     1     2 1   
     2     1    13 1   
     3     1    14 1   
     4     2     3 1   
     5     2     5 1   
     6     2    15 1   
     7     3     4 1   
     8     3    12 1   
     9     5     6 1   
    10     5    16 1   
    11     5    17 1   
    12     6     7 ar  
    13     6     8 ar  
    14     7     9 ar  
    15     7    18 1   
    16     8    10 ar  
    17     8    19 1   
    18     9    11 ar  
    19     9    20 1   
    20    10    11 ar  
    21    10    21 1   
@<TRIPOS>SUBSTRUCTURE
     1 N9P         1 TEMP              0 ****  ****    0 ROOT
