@<TRIPOS>MOLECULE
N9Q
   45    46     1     0     0
SMALL
bcc


@<TRIPOS>ATOM
      1 C2          -4.7700     0.6560    -0.4260 ca         1 N9Q       0.031400
      2 C3          -3.4840     0.2620    -0.0980 ca         1 N9Q      -0.099000
      3 C41          4.7680    -1.8850     0.6550 c3         1 N9Q      -0.212400
      4 C44          5.7920    -1.0580    -0.1410 c          1 N9Q       0.934600
      5 C12         -1.7010    -1.4720    -0.0030 cp         1 N9Q      -0.065000
      6 C13         -0.9930    -2.3620    -0.8120 ca         1 N9Q      -0.104000
      7 C15          0.2990    -2.7420    -0.4860 ca         1 N9Q      -0.123500
      8 C17          0.9250    -2.2580     0.6590 ca         1 N9Q      -0.040300
      9 C18          0.2070    -1.3910     1.4780 ca         1 N9Q      -0.123500
     10 C20         -1.0810    -0.9990     1.1520 ca         1 N9Q      -0.104000
     11 C22          2.3580    -2.5850     0.9550 c3         1 N9Q      -0.068100
     12 C25          3.3270    -1.6180     0.2450 c3         1 N9Q       0.127700
     13 CL1         -5.2600     2.2870    -0.0960 cl         1 N9Q      -0.115400
     14 C5          -3.0690    -1.0450    -0.3570 cp         1 N9Q       0.005000
     15 C6          -3.9710    -1.9270    -0.9540 ca         1 N9Q      -0.134000
     16 C8          -5.2530    -1.5140    -1.2800 ca         1 N9Q      -0.136000
     17 C10         -5.6700    -0.2170    -1.0180 ca         1 N9Q      -0.146000
     18 N27          2.9740    -0.2440     0.5310 ns         1 N9Q      -0.557900
     19 O30          1.8960     0.2060    -1.4050 o          1 N9Q      -0.623100
     20 C31          1.7310     1.8120     0.3850 c3         1 N9Q      -0.132400
     21 C34          0.8340     2.6550    -0.4970 c3         1 N9Q      -0.194400
     22 C37          0.3350     3.9630     0.1430 c          1 N9Q       0.923600
     23 O38         -0.3480     4.7020    -0.5980 o          1 N9Q      -0.861300
     24 O39          0.6330     4.1860     1.3330 o          1 N9Q      -0.861300
     25 O45          6.7270    -0.5390     0.5030 o          1 N9Q      -0.841800
     26 O46          5.6190    -0.9970    -1.3740 o          1 N9Q      -0.841800
     27 H1          -2.8000     0.9750     0.3440 ha         1 N9Q       0.179000
     28 H2           4.9800    -2.9480     0.4910 hc         1 N9Q       0.011700
     29 H3           4.8840    -1.7150     1.7300 hc         1 N9Q       0.011700
     30 H4          -1.4430    -2.7410    -1.7210 ha         1 N9Q       0.122500
     31 H5           0.8350    -3.4150    -1.1450 ha         1 N9Q       0.128500
     32 H6           0.6610    -1.0110     2.3860 ha         1 N9Q       0.128500
     33 H7          -1.6140    -0.3330     1.8210 ha         1 N9Q       0.122500
     34 H8           2.5370    -2.5400     2.0340 hc         1 N9Q       0.032700
     35 H9           2.5920    -3.6030     0.6350 hc         1 N9Q       0.032700
     36 H10          3.2380    -1.7550    -0.8310 h1         1 N9Q       0.100700
     37 H11         -3.6760    -2.9500    -1.1490 ha         1 N9Q       0.127000
     38 H12         -5.9440    -2.2120    -1.7340 ha         1 N9Q       0.115000
     39 H13         -6.6710     0.1050    -1.2700 ha         1 N9Q       0.129000
     40 H14          3.1250     0.0730     1.4760 hn         1 N9Q       0.293500
     41 H15          1.2100     1.5510     1.3110 hc         1 N9Q       0.050200
     42 H16          2.6110     2.3810     0.7000 hc         1 N9Q       0.050200
     43 H17          1.3430     2.9020    -1.4330 hc         1 N9Q       0.032700
     44 H18         -0.0440     2.0730    -0.7970 hc         1 N9Q       0.032700
     45 C29          2.1950     0.5220    -0.2640 c          1 N9Q       0.662100
@<TRIPOS>BOND
     1     1     2 ar  
     2     1    13 1   
     3     1    17 ar  
     4     2    14 ar  
     5     2    27 1   
     6     3     4 1   
     7     3    12 1   
     8     3    28 1   
     9     3    29 1   
    10     4    25 1   
    11     4    26 1   
    12     5     6 ar  
    13     5    10 ar  
    14     5    14 1   
    15     6     7 ar  
    16     6    30 1   
    17     7     8 ar  
    18     7    31 1   
    19     8     9 ar  
    20     8    11 1   
    21     9    10 ar  
    22     9    32 1   
    23    10    33 1   
    24    11    12 1   
    25    11    34 1   
    26    11    35 1   
    27    12    18 1   
    28    12    36 1   
    29    14    15 ar  
    30    15    16 ar  
    31    15    37 1   
    32    16    17 ar  
    33    16    38 1   
    34    17    39 1   
    35    18    40 1   
    36    18    45 1   
    37    19    45 2   
    38    20    21 1   
    39    20    41 1   
    40    20    42 1   
    41    20    45 1   
    42    21    22 1   
    43    21    43 1   
    44    21    44 1   
    45    22    23 1   
    46    22    24 1   
@<TRIPOS>SUBSTRUCTURE
     1 N9Q         1 TEMP              0 ****  ****    0 ROOT
