@<TRIPOS>MOLECULE
N9Q
   45    46     1     0     0
SMALL
No Charge or Current Charge


@<TRIPOS>ATOM
      1 C2          -5.0180     0.6090    -0.4430 ca         1 N9Q       0.123000
      2 C3          -3.7110     0.2460    -0.0780 ca         1 N9Q      -0.081000
      3 C41          4.8100    -1.9320     0.7140 c3         1 N9Q      -0.212400
      4 C44          5.8130    -1.2000    -0.1910 c          1 N9Q       0.724000
      5 C12         -1.7860    -1.4080    -0.0380 cp         1 N9Q      -0.065000
      6 C13         -0.9820    -2.2040    -0.8920 ca         1 N9Q      -0.086000
      7 C15          0.3320    -2.5530    -0.5370 ca         1 N9Q      -0.105500
      8 C17          0.8780    -2.1160     0.6830 ca         1 N9Q      -0.040300
      9 C18          0.0900    -1.3340     1.5470 ca         1 N9Q      -0.105500
     10 C20         -1.2220    -0.9830     1.1910 ca         1 N9Q      -0.086000
     11 C22          2.3170    -2.4630     1.0510 c3         1 N9Q      -0.068100
     12 C25          3.3600    -1.6120     0.2830 c3         1 N9Q       0.127700
     13 Cl1         -5.6440     2.1920    -0.0020 cl         1 N9Q      -0.207000
     14 C5          -3.1800    -1.0220    -0.4250 cp         1 N9Q       0.005000
     15 C6          -4.0130    -1.9110    -1.1520 ca         1 N9Q      -0.116000
     16 C8          -5.3220    -1.5490    -1.5160 ca         1 N9Q      -0.118000
     17 C10         -5.8250    -0.2870    -1.1610 ca         1 N9Q      -0.128000
     18 N27          3.0630    -0.1840     0.4290 ns         1 N9Q      -0.490900
     19 O30          2.2290     0.1980    -1.6630 o          1 N9Q      -0.623100
     20 C31          2.1860     2.0490    -0.1000 c3         1 N9Q      -0.132400
     21 C34          0.6720     2.2830     0.1650 c3         1 N9Q      -0.194400
     22 C37          0.4120     3.7460     0.5630 c          1 N9Q       0.713000
     23 O38          0.1990     4.5570    -0.3250 o          1 N9Q      -0.756000
     24 O39          0.4880     4.0440     1.7450 o          1 N9Q      -0.756000
     25 O45          6.2340    -0.1100     0.1670 o          1 N9Q      -0.736500
     26 O46          6.1420    -1.7410    -1.2360 o          1 N9Q      -0.736500
     27 H1          -3.1000     0.9620     0.4650 ha         1 N9Q       0.161000
     28 H2           4.9150    -3.0170     0.5850 hc         1 N9Q       0.011700
     29 H3           4.9080    -1.6040     1.7570 hc         1 N9Q       0.011700
     30 H4          -1.3720    -2.5390    -1.8500 ha         1 N9Q       0.104500
     31 H5           0.9310    -3.1530    -1.2180 ha         1 N9Q       0.110500
     32 H6           0.4990    -0.9870     2.4940 ha         1 N9Q       0.110500
     33 H7          -1.8090    -0.3830     1.8810 ha         1 N9Q       0.104500
     34 H8           2.4710    -2.3300     2.1290 hc         1 N9Q       0.032700
     35 H9           2.5030    -3.5250     0.8480 hc         1 N9Q       0.032700
     36 H10          3.2720    -1.8780    -0.7810 h1         1 N9Q       0.100700
     37 H11         -3.6460    -2.8970    -1.4260 ha         1 N9Q       0.109000
     38 H12         -5.9450    -2.2470    -2.0710 ha         1 N9Q       0.097000
     39 H13         -6.8360    -0.0030    -1.4410 ha         1 N9Q       0.111000
     40 H14          3.2490     0.2530     1.3220 hn         1 N9Q       0.293500
     41 H15          2.7350     2.2780     0.8220 hc         1 N9Q       0.050200
     42 H16          2.5080     2.7270    -0.9000 hc         1 N9Q       0.050200
     43 H17          0.1600     2.0490    -0.7760 hc         1 N9Q       0.032700
     44 H18          0.4060     1.6110     0.9900 hc         1 N9Q       0.032700
     45 C29          2.4750     0.6050    -0.5350 c          1 N9Q       0.595100
@<TRIPOS>BOND
     1     1     2 ar  
     2     1    13 1   
     3     1    17 ar  
     4     2    14 ar  
     5     2    27 1   
     6     3     4 1   
     7     3    12 1   
     8     3    28 1   
     9     3    29 1   
    10     4    25 1   
    11     4    26 1   
    12     5     6 ar  
    13     5    10 ar  
    14     5    14 1   
    15     6     7 ar  
    16     6    30 1   
    17     7     8 ar  
    18     7    31 1   
    19     8     9 ar  
    20     8    11 1   
    21     9    10 ar  
    22     9    32 1   
    23    10    33 1   
    24    11    12 1   
    25    11    34 1   
    26    11    35 1   
    27    12    18 1   
    28    12    36 1   
    29    14    15 ar  
    30    15    16 ar  
    31    15    37 1   
    32    16    17 ar  
    33    16    38 1   
    34    17    39 1   
    35    18    40 1   
    36    18    45 1   
    37    19    45 2   
    38    20    21 1   
    39    20    41 1   
    40    20    42 1   
    41    20    45 1   
    42    21    22 1   
    43    21    43 1   
    44    21    44 1   
    45    22    23 1   
    46    22    24 1   
@<TRIPOS>SUBSTRUCTURE
     1 N9Q         1 TEMP              0 ****  ****    0 ROOT
