@<TRIPOS>MOLECULE
N9R
   35    37     1     0     0
SMALL
abcg2


@<TRIPOS>ATOM
      1 N1          23.7050    -1.6320   -49.1460 na         1 N9R      -0.086700
      2 N3          21.8770     2.2270   -53.8760 nb         1 N9R      -0.255000
      3 C4          22.0310    -1.6740   -47.2810 ca         1 N9R      -0.125000
      4 C5          20.8130    -1.1480   -46.8800 ca         1 N9R      -0.095000
      5 C6          20.1170    -0.2390   -47.6940 ca         1 N9R      -0.139000
      6 C7          24.6810    -2.5650   -48.6150 c3         1 N9R       0.063900
      7 C8          23.7840    -0.9890   -50.3400 cc         1 N9R      -0.105100
      8 C10         22.4270     0.6390   -51.7020 ca         1 N9R       0.252800
      9 C13         24.9860     1.0660   -55.3020 c          1 N9R       0.611300
     10 C15         24.8160     1.7040   -57.7260 c2         1 N9R      -0.260000
     11 O1          25.6150     0.3530   -54.5270 o          1 N9R      -0.578100
     12 C14         25.5250     1.3610   -56.6550 ce         1 N9R      -0.276200
     13 C12         23.0020     1.4880   -53.8530 ca         1 N9R       0.244900
     14 C11         23.3230     0.6720   -52.7800 ca         1 N9R      -0.246000
     15 C16         21.0960     2.1260   -52.8080 ca         1 N9R       0.151900
     16 N4          21.2980     1.3840   -51.7270 nb         1 N9R      -0.209000
     17 C9          22.6730    -0.1830   -50.5360 cd         1 N9R      -0.242000
     18 C2          21.8480    -0.3490   -49.3580 ca         1 N9R      -0.050800
     19 C3          22.5300    -1.2650   -48.5150 ca         1 N9R      -0.063200
     20 C1          20.6180     0.1650   -48.9230 ca         1 N9R      -0.049000
     21 H1          22.5720    -2.3760   -46.6600 ha         1 N9R       0.112000
     22 H2          20.3920    -1.4420   -45.9270 ha         1 N9R       0.110000
     23 H3          19.1680     0.1550   -47.3530 ha         1 N9R       0.111000
     24 H4          24.2270    -3.5470   -48.4720 h1         1 N9R       0.052700
     25 H5          25.5050    -2.6510   -49.3200 h1         1 N9R       0.052700
     26 H6          25.0630    -2.2090   -47.6570 h1         1 N9R       0.052700
     27 H7          24.6380    -1.1520   -50.9780 h4         1 N9R       0.220000
     28 H8          23.7410     1.8320   -57.7060 ha         1 N9R       0.173000
     29 H9          25.3000     1.8500   -58.6830 ha         1 N9R       0.173000
     30 H11         26.5940     1.1970   -56.7270 ha         1 N9R       0.205000
     31 H13         23.3750     2.2720   -55.6690 hn         1 N9R       0.170000
     32 H14         24.2290     0.0940   -52.7880 ha         1 N9R       0.157000
     33 H15         20.1870     2.7210   -52.8230 h5         1 N9R       0.046100
     34 H16         20.0760     0.8640   -49.5400 ha         1 N9R       0.138000
     35 N2          23.7750     1.6310   -54.9980 ns         1 N9R      -0.318900
@<TRIPOS>BOND
     1     1     6 1   
     2     1     7 1   
     3     1    19 1   
     4     2    13 ar  
     5     2    15 ar  
     6     3     4 ar  
     7     3    19 ar  
     8     3    21 1   
     9     4     5 ar  
    10     4    22 1   
    11     5    20 ar  
    12     5    23 1   
    13     6    24 1   
    14     6    25 1   
    15     6    26 1   
    16     7    17 2   
    17     7    27 1   
    18     8    14 ar  
    19     8    16 ar  
    20     8    17 1   
    21     9    11 2   
    22     9    12 1   
    23     9    35 1   
    24    10    12 2   
    25    10    28 1   
    26    10    29 1   
    27    12    30 1   
    28    13    14 ar  
    29    13    35 1   
    30    14    32 1   
    31    15    16 ar  
    32    15    33 1   
    33    17    18 1   
    34    18    19 ar  
    35    18    20 ar  
    36    20    34 1   
    37    31    35 1   
@<TRIPOS>SUBSTRUCTURE
     1 N9R         1 TEMP              0 ****  ****    0 ROOT
