@<TRIPOS>MOLECULE
N9R
   35    37     1     0     0
SMALL
No Charge or Current Charge


@<TRIPOS>ATOM
      1 N1          23.7160    -1.6720   -49.0790 na         1 N9R      -0.086700
      2 N3          21.8780     2.0730   -53.9520 nb         1 N9R      -0.255000
      3 C4          22.0190    -1.6090   -47.2200 ca         1 N9R      -0.125000
      4 C5          20.7850    -1.0500   -46.8310 ca         1 N9R      -0.095000
      5 C6          20.1020    -0.1650   -47.6940 ca         1 N9R      -0.139000
      6 C7          24.6470    -2.6020   -48.4200 c3         1 N9R       0.063900
      7 C8          23.8600    -1.0850   -50.3460 cc         1 N9R      -0.105100
      8 C10         22.4450     0.5270   -51.7170 ca         1 N9R       0.252800
      9 C13         25.0220     1.0070   -55.4390 c          1 N9R       0.611300
     10 C15         24.8160     2.1400   -57.7160 c2         1 N9R      -0.260000
     11 O1          25.7140     0.3210   -54.7030 o          1 N9R      -0.578100
     12 C14         25.4890     1.3850   -56.8080 ce         1 N9R      -0.276200
     13 C12         23.0090     1.3480   -53.9180 ca         1 N9R       0.244900
     14 C11         23.3390     0.5490   -52.8080 ca         1 N9R      -0.246000
     15 C16         21.0840     1.9910   -52.8660 ca         1 N9R       0.151900
     16 N4          21.3120     1.2590   -51.7580 nb         1 N9R      -0.209000
     17 C9          22.7250    -0.2910   -50.5100 cd         1 N9R      -0.242000
     18 C2          21.8780    -0.4000   -49.3210 ca         1 N9R      -0.050800
     19 C3          22.5370    -1.2600   -48.4780 ca         1 N9R      -0.063200
     20 C1          20.6430     0.1710   -48.9540 ca         1 N9R      -0.049000
     21 H1          22.5480    -2.2910   -46.5590 ha         1 N9R       0.112000
     22 H2          20.3580    -1.3020   -45.8630 ha         1 N9R       0.110000
     23 H3          19.1500     0.2620   -47.3860 ha         1 N9R       0.111000
     24 H4          24.1360    -3.5510   -48.2160 h1         1 N9R       0.052700
     25 H5          25.5090    -2.7900   -49.0720 h1         1 N9R       0.052700
     26 H6          24.9970    -2.1650   -47.4770 h1         1 N9R       0.052700
     27 H7          24.7160    -1.2760   -50.9850 h4         1 N9R       0.220000
     28 H8          23.8270     2.5620   -57.5280 ha         1 N9R       0.173000
     29 H9          25.2450     2.3620   -58.6950 ha         1 N9R       0.173000
     30 H11         26.4750     0.9910   -57.0550 ha         1 N9R       0.205000
     31 H13         23.3320     2.0550   -55.8020 hn         1 N9R       0.170000
     32 H14         24.2480    -0.0370   -52.7890 ha         1 N9R       0.157000
     33 H15         20.1660     2.5760   -52.8860 h5         1 N9R       0.046100
     34 H16         20.1020     0.8530   -49.6020 ha         1 N9R       0.138000
     35 N2          23.7770     1.4920   -55.0910 ns         1 N9R      -0.318900
@<TRIPOS>BOND
     1     1     6 1   
     2     1     7 1   
     3     1    19 1   
     4     2    13 ar  
     5     2    15 ar  
     6     3     4 ar  
     7     3    19 ar  
     8     3    21 1   
     9     4     5 ar  
    10     4    22 1   
    11     5    20 ar  
    12     5    23 1   
    13     6    24 1   
    14     6    25 1   
    15     6    26 1   
    16     7    17 2   
    17     7    27 1   
    18     8    14 ar  
    19     8    16 ar  
    20     8    17 1   
    21     9    11 2   
    22     9    12 1   
    23     9    35 1   
    24    10    12 2   
    25    10    28 1   
    26    10    29 1   
    27    12    30 1   
    28    13    14 ar  
    29    13    35 1   
    30    14    32 1   
    31    15    16 ar  
    32    15    33 1   
    33    17    18 1   
    34    18    19 ar  
    35    18    20 ar  
    36    20    34 1   
    37    31    35 1   
@<TRIPOS>SUBSTRUCTURE
     1 N9R         1 TEMP              0 ****  ****    0 ROOT
