@<TRIPOS>MOLECULE
N9T
   60    63     1     0     0
SMALL
No Charge or Current Charge


@<TRIPOS>ATOM
      1 C10         -1.8280    60.6690   297.0870 c6         1 N9T      -0.144700
      2 C13          0.1910    58.4360   296.9160 c6         1 N9T      -0.110400
      3 C15         -0.3510    60.9080   296.6410 c6         1 N9T      -0.072400
      4 C17          1.5300    58.7520   293.3330 ca         1 N9T      -0.089300
      5 C20          0.0880    58.3650   290.9390 ca         1 N9T      -0.109000
      6 C21          0.1040    57.3600   291.9210 ca         1 N9T      -0.114000
      7 C22          0.8230    57.5520   293.1140 ca         1 N9T      -0.099500
      8 C24         -2.3840    65.6300   301.5210 ca         1 N9T       0.180100
      9 C01         -2.8490    68.8590   304.2990 c3         1 N9T       0.141900
     10 C02         -3.5840    67.6220   302.2750 ca         1 N9T       0.164100
     11 C03         -4.4880    67.4740   301.1770 ca         1 N9T       0.050100
     12 C04         -5.9270    69.4650   301.6790 c3         1 N9T       0.147900
     13 C05         -4.3100    66.4040   300.2800 ca         1 N9T      -0.045000
     14 C06         -3.2640    65.4780   300.4430 ca         1 N9T      -0.150800
     15 C07         -3.1070    64.3790   299.4950 cc         1 N9T      -0.120200
     16 C08         -2.0550    63.4970   299.7080 cd         1 N9T      -0.076600
     17 C09         -2.4430    61.9360   297.7220 c          1 N9T       0.611100
     18 C11         -1.8390    59.4630   298.0770 c6         1 N9T      -0.068400
     19 C12         -1.2520    58.1900   297.4190 c6         1 N9T      -0.069400
     20 C14          0.2520    59.6540   295.9560 c6         1 N9T       0.172500
     21 C18          1.5080    59.7560   292.3440 ca         1 N9T      -0.099500
     22 C19          0.7900    59.5630   291.1510 ca         1 N9T      -0.114000
     23 C23         -1.1230    63.6820   300.8760 c          1 N9T       0.668300
     24 C25         -2.5370    66.6850   302.4280 ca         1 N9T      -0.219000
     25 N01         -1.8020    62.4000   298.8630 ns         1 N9T      -0.400100
     26 N02          1.6380    59.9380   295.5210 n7         1 N9T      -0.871400
     27 O02         -5.5610    68.3140   300.8970 os         1 N9T      -0.342100
     28 O03         -3.4270    62.4640   297.2260 o          1 N9T      -0.590100
     29 O04         -0.1880    62.9190   301.0870 o          1 N9T      -0.506000
     30 O05         -1.3600    64.7450   301.7030 os         1 N9T      -0.320200
     31 H1          -2.4380    60.4230   296.2070 hc         1 N9T       0.083700
     32 H2           0.5510    57.5310   296.4100 hc         1 N9T       0.040700
     33 H3           0.8560    58.6010   297.7750 hc         1 N9T       0.040700
     34 H4           0.2730    61.1910   297.5010 hc         1 N9T       0.052700
     35 H5          -0.3160    61.7550   295.9420 hc         1 N9T       0.052700
     36 H6          -0.4690    58.2150   290.0160 ha         1 N9T       0.111000
     37 H7          -0.4410    56.4320   291.7580 ha         1 N9T       0.111500
     38 H8           0.8280    56.7700   293.8690 ha         1 N9T       0.117000
     39 H9          -3.1560    69.7430   304.8710 h1         1 N9T       0.047367
     40 H10         -2.8770    67.9930   304.9730 h1         1 N9T       0.047367
     41 H11         -1.8160    69.0150   303.9640 h1         1 N9T       0.047367
     42 H12         -6.8090    69.9510   301.2440 h1         1 N9T       0.037033
     43 H13         -6.1760    69.1780   302.7080 h1         1 N9T       0.037033
     44 H14         -5.1130    70.2020   301.6970 h1         1 N9T       0.037033
     45 H15         -5.0000    66.2970   299.4460 ha         1 N9T       0.138000
     46 H16         -3.7970    64.2760   298.6650 ha         1 N9T       0.229000
     47 H17         -2.8690    59.2610   298.4030 hc         1 N9T       0.052200
     48 H18         -1.2680    59.6960   298.9870 hc         1 N9T       0.052200
     49 H19         -1.8890    57.8790   296.5790 hc         1 N9T       0.045200
     50 H20         -1.2590    57.3610   298.1390 hc         1 N9T       0.045200
     51 H21         -0.3650    59.4320   295.0700 h1         1 N9T       0.067700
     52 H22          2.4420    58.0020   295.1370 h1         1 N9T       0.037200
     53 H23          3.3120    59.3300   294.3730 h1         1 N9T       0.037200
     54 H24          2.0470    60.6880   292.5050 ha         1 N9T       0.117000
     55 H25          0.7770    60.3430   290.3920 ha         1 N9T       0.111500
     56 H26         -1.8270    66.7550   303.2460 ha         1 N9T       0.143000
     57 H27         -1.0070    61.8190   299.1090 hn         1 N9T       0.346500
     58 H28          2.2220    60.0600   296.3560 hn         1 N9T       0.416000
     59 C16          2.3080    58.9660   294.6280 c3         1 N9T       0.214100
     60 O01         -3.7290    68.6630   303.1770 os         1 N9T      -0.318100
@<TRIPOS>BOND
     1     1     3 1   
     2     1    17 1   
     3     1    18 1   
     4     1    31 1   
     5     2    19 1   
     6     2    20 1   
     7     2    32 1   
     8     2    33 1   
     9     3    20 1   
    10     3    34 1   
    11     3    35 1   
    12     4     7 ar  
    13     4    21 ar  
    14     4    59 1   
    15     5     6 ar  
    16     5    22 ar  
    17     5    36 1   
    18     6     7 ar  
    19     6    37 1   
    20     7    38 1   
    21     8    14 ar  
    22     8    24 ar  
    23     8    30 1   
    24     9    39 1   
    25     9    40 1   
    26     9    41 1   
    27     9    60 1   
    28    10    11 ar  
    29    10    24 ar  
    30    10    60 1   
    31    11    13 ar  
    32    11    27 1   
    33    12    27 1   
    34    12    42 1   
    35    12    43 1   
    36    12    44 1   
    37    13    14 ar  
    38    13    45 1   
    39    14    15 1   
    40    15    16 2   
    41    15    46 1   
    42    16    23 1   
    43    16    25 1   
    44    17    25 1   
    45    17    28 2   
    46    18    19 1   
    47    18    47 1   
    48    18    48 1   
    49    19    49 1   
    50    19    50 1   
    51    20    26 1   
    52    20    51 1   
    53    21    22 ar  
    54    21    54 1   
    55    22    55 1   
    56    23    29 2   
    57    23    30 1   
    58    24    56 1   
    59    25    57 1   
    60    26    58 1   
    61    26    59 1   
    62    52    59 1   
    63    53    59 1   
@<TRIPOS>SUBSTRUCTURE
     1 N9T         1 TEMP              0 ****  ****    0 ROOT
