@<TRIPOS>MOLECULE
N9T
   60    63     1     0     0
SMALL
abcg2


@<TRIPOS>ATOM
      1 C10         -1.9740    60.4700   297.3770 c6         1 N9T      -0.144700
      2 C13         -0.3970    57.9940   297.2300 c6         1 N9T      -0.110400
      3 C15         -0.4750    60.4960   297.0800 c6         1 N9T      -0.072400
      4 C17          1.4420    58.8580   293.6430 ca         1 N9T      -0.089300
      5 C20          0.8060    59.6950   291.0470 ca         1 N9T      -0.109000
      6 C21          0.8260    58.3430   291.3600 ca         1 N9T      -0.114000
      7 C22          1.1370    57.9310   292.6510 ca         1 N9T      -0.099500
      8 C24         -2.0440    66.0920   300.7550 ca         1 N9T       0.180100
      9 C01         -2.1610    69.7100   302.8550 c3         1 N9T       0.141900
     10 C02         -3.2200    67.9610   301.6640 ca         1 N9T       0.164100
     11 C03         -4.4250    67.4190   301.1580 ca         1 N9T       0.050100
     12 C04         -6.2520    67.8190   302.5620 c3         1 N9T       0.147900
     13 C05         -4.4100    66.2290   300.4740 ca         1 N9T      -0.045000
     14 C06         -3.2100    65.5370   300.2500 ca         1 N9T      -0.150800
     15 C07         -3.1340    64.3020   299.5340 cc         1 N9T      -0.120200
     16 C08         -1.9370    63.6970   299.3530 cd         1 N9T      -0.076600
     17 C09         -2.5530    61.7230   298.0090 c          1 N9T       0.611100
     18 C11         -2.3410    59.2520   298.2360 c6         1 N9T      -0.068400
     19 C12         -1.8830    57.9620   297.5670 c6         1 N9T      -0.069400
     20 C14         -0.0300    59.2130   296.3800 c6         1 N9T       0.172500
     21 C18          1.4130    60.2130   293.3200 ca         1 N9T      -0.099500
     22 C19          1.0990    60.6290   292.0340 ca         1 N9T      -0.114000
     23 C23         -0.7240    64.3050   299.9030 c          1 N9T       0.668300
     24 C25         -2.0240    67.2890   301.4560 ca         1 N9T      -0.219000
     25 N01         -1.6750    62.5130   298.6790 ns         1 N9T      -0.400100
     26 N02          1.3860    59.3030   296.0610 n7         1 N9T      -0.871400
     27 O02         -5.5860    68.1010   301.3370 os         1 N9T      -0.342100
     28 O03         -3.7440    61.9730   297.9390 o          1 N9T      -0.590100
     29 O04          0.3810    63.8290   299.7950 o          1 N9T      -0.506000
     30 O05         -0.8570    65.4620   300.5690 os         1 N9T      -0.320200
     31 H1          -2.5030    60.3720   296.4220 hc         1 N9T       0.083700
     32 H2          -0.1120    57.0740   296.7140 hc         1 N9T       0.040700
     33 H3           0.1900    58.0280   298.1560 hc         1 N9T       0.040700
     34 H4           0.1050    60.5860   298.0080 hc         1 N9T       0.052700
     35 H5          -0.2190    61.3510   296.4500 hc         1 N9T       0.052700
     36 H6           0.5580    60.0190   290.0440 ha         1 N9T       0.111000
     37 H7           0.5920    57.6060   290.6020 ha         1 N9T       0.111500
     38 H8           1.1400    56.8730   292.8880 ha         1 N9T       0.117000
     39 H9          -2.4770    70.6270   303.3440 h1         1 N9T       0.047367
     40 H10         -1.6860    69.0590   303.5930 h1         1 N9T       0.047367
     41 H11         -1.4370    69.9550   302.0750 h1         1 N9T       0.047367
     42 H12         -7.1490    68.4350   302.5870 h1         1 N9T       0.037033
     43 H13         -6.5430    66.7670   302.6230 h1         1 N9T       0.037033
     44 H14         -5.6340    68.0630   303.4290 h1         1 N9T       0.037033
     45 H15         -5.3390    65.8240   300.0910 ha         1 N9T       0.138000
     46 H16         -4.0440    63.8720   299.1450 ha         1 N9T       0.229000
     47 H17         -3.4200    59.2240   298.4000 hc         1 N9T       0.052200
     48 H18         -1.8710    59.3480   299.2210 hc         1 N9T       0.052200
     49 H19         -2.4590    57.8090   296.6490 hc         1 N9T       0.045200
     50 H20         -2.1040    57.1120   298.2160 hc         1 N9T       0.045200
     51 H21         -0.5740    59.1510   295.4300 h1         1 N9T       0.067700
     52 H22          1.4950    57.3580   295.1610 h1         1 N9T       0.037200
     53 H23          2.9280    58.3550   295.0790 h1         1 N9T       0.037200
     54 H24          1.6320    60.9440   294.0880 ha         1 N9T       0.117000
     55 H25          1.0810    61.6860   291.8000 ha         1 N9T       0.111500
     56 H26         -1.0800    67.6690   301.8220 ha         1 N9T       0.143000
     57 H27         -0.7050    62.2330   298.6900 hn         1 N9T       0.346500
     58 H28          1.9310    59.1520   296.9000 hn         1 N9T       0.416000
     59 C16          1.8360    58.3960   295.0250 c3         1 N9T       0.214100
     60 O01         -3.3310    69.1200   302.3160 os         1 N9T      -0.318100
@<TRIPOS>BOND
     1     1     3 1   
     2     1    17 1   
     3     1    18 1   
     4     1    31 1   
     5     2    19 1   
     6     2    20 1   
     7     2    32 1   
     8     2    33 1   
     9     3    20 1   
    10     3    34 1   
    11     3    35 1   
    12     4     7 ar  
    13     4    21 ar  
    14     4    59 1   
    15     5     6 ar  
    16     5    22 ar  
    17     5    36 1   
    18     6     7 ar  
    19     6    37 1   
    20     7    38 1   
    21     8    14 ar  
    22     8    24 ar  
    23     8    30 1   
    24     9    39 1   
    25     9    40 1   
    26     9    41 1   
    27     9    60 1   
    28    10    11 ar  
    29    10    24 ar  
    30    10    60 1   
    31    11    13 ar  
    32    11    27 1   
    33    12    27 1   
    34    12    42 1   
    35    12    43 1   
    36    12    44 1   
    37    13    14 ar  
    38    13    45 1   
    39    14    15 1   
    40    15    16 2   
    41    15    46 1   
    42    16    23 1   
    43    16    25 1   
    44    17    25 1   
    45    17    28 2   
    46    18    19 1   
    47    18    47 1   
    48    18    48 1   
    49    19    49 1   
    50    19    50 1   
    51    20    26 1   
    52    20    51 1   
    53    21    22 ar  
    54    21    54 1   
    55    22    55 1   
    56    23    29 2   
    57    23    30 1   
    58    24    56 1   
    59    25    57 1   
    60    26    58 1   
    61    26    59 1   
    62    52    59 1   
    63    53    59 1   
@<TRIPOS>SUBSTRUCTURE
     1 N9T         1 TEMP              0 ****  ****    0 ROOT
