@<TRIPOS>MOLECULE
N9U
   57    58     1     0     0
SMALL
No Charge or Current Charge


@<TRIPOS>ATOM
      1 C10         56.3380   113.3610    69.4570 c          1 N9U       0.709000
      2 C13         55.2940   111.1480    70.1300 c3         1 N9U       0.103000
      3 O11         55.9140   113.5610    68.3260 o          1 N9U      -0.714500
      4 O12         57.4230   113.7640    69.8490 o          1 N9U      -0.714500
      5 C22         52.8690   105.6940    73.2350 ce         1 N9U       0.343900
      6 C23         52.3640   104.3730    73.7350 ca         1 N9U      -0.094900
      7 C24         52.4670   103.2100    72.9440 ca         1 N9U      -0.095500
      8 C25         51.9810   101.9760    73.4100 ca         1 N9U      -0.085000
      9 C26         51.7390   104.2750    74.9960 ca         1 N9U      -0.095500
     10 C27         51.2510   103.0420    75.4610 ca         1 N9U      -0.085000
     11 C28         51.3810   101.8670    74.6870 ca         1 N9U      -0.140900
     12 C15         54.8410   109.9460    72.2980 c          1 N9U       0.603100
     13 C17         53.7450   109.2780    73.1250 c3         1 N9U      -0.170400
     14 C18         53.9580   107.7530    73.1860 c5         1 N9U       0.138300
     15 C29         50.8270   100.5630    75.1840 ce         1 N9U       0.663800
     16 C19         52.9240   106.9790    74.0390 c5         1 N9U      -0.169700
     17 C01         54.3220   112.2790    77.6530 c3         1 N9U      -0.090100
     18 C02         53.3710   112.6730    76.5060 c3         1 N9U      -0.074400
     19 C03         54.0790   112.7530    75.1360 c3         1 N9U      -0.094400
     20 C04         53.1260   113.1410    73.9890 c3         1 N9U       0.184600
     21 C09         55.4070   112.6510    70.4760 c3         1 N9U      -0.058300
     22 N08         54.0740   113.3210    70.5180 ns         1 N9U      -0.462900
     23 N21         53.2950   105.8820    72.0280 n2         1 N9U      -0.257700
     24 N30         51.3280    99.4190    74.6710 nv         1 N9U      -1.088200
     25 N31         49.9860   100.4760    76.1300 n2         1 N9U      -0.830100
     26 O05         53.8730   113.0660    72.7660 os         1 N9U      -0.459100
     27 O07         52.1490   113.9670    71.5450 o          1 N9U      -0.598000
     28 O16         55.9840   110.0830    72.7120 o          1 N9U      -0.601100
     29 O20         53.8110   107.1800    71.8730 os         1 N9U      -0.271000
     30 H1          56.2970   110.7000    70.1250 h1         1 N9U       0.066700
     31 H2          54.8780   111.0390    69.1190 h1         1 N9U       0.066700
     32 H5          52.9250   103.2530    71.9570 ha         1 N9U       0.127500
     33 H6          52.0630   101.1070    72.7600 ha         1 N9U       0.126000
     34 H7          51.6200   105.1550    75.6240 ha         1 N9U       0.127500
     35 H8          50.7730   103.0020    76.4380 ha         1 N9U       0.126000
     36 H9          53.7860   109.6740    74.1450 hc         1 N9U       0.064700
     37 H10         52.7610   109.4900    72.6910 hc         1 N9U       0.064700
     38 H11         54.9780   107.5370    73.5390 h1         1 N9U       0.090700
     39 H12         53.2600   106.8250    75.0700 hc         1 N9U       0.070700
     40 H13         51.9460   107.4720    74.0590 hc         1 N9U       0.070700
     41 H14         53.7760   112.2350    78.6030 hc         1 N9U       0.031367
     42 H15         54.7670   111.2940    77.4670 hc         1 N9U       0.031367
     43 H16         55.1310   113.0120    77.7560 hc         1 N9U       0.031367
     44 H17         52.9150   113.6440    76.7380 hc         1 N9U       0.031200
     45 H18         52.5560   111.9410    76.4520 hc         1 N9U       0.031200
     46 H19         54.5420   111.7860    74.9110 hc         1 N9U       0.061700
     47 H20         54.8890   113.4910    75.1880 hc         1 N9U       0.061700
     48 H21         52.7490   114.1580    74.1590 h1         1 N9U       0.035700
     49 H22         52.2730   112.4500    73.9620 h1         1 N9U       0.035700
     50 H23         55.8890   112.7450    71.4570 h1         1 N9U       0.075700
     51 H24         53.6870   113.6590    69.6440 hn         1 N9U       0.353500
     52 H25         53.4740   110.2460    70.8100 hn         1 N9U       0.297500
     53 H27         52.1960    99.5290    74.1600 hn         1 N9U       0.465500
     54 H28         51.2870    98.6050    75.2730 hn         1 N9U       0.465500
     55 H29         49.6210    99.5180    76.1410 hn         1 N9U       0.365400
     56 C06         53.2680   113.4860    71.6160 c          1 N9U       0.622100
     57 N14         54.4420   110.4050    71.0640 ns         1 N9U      -0.492900
@<TRIPOS>BOND
     1     1     3 1   
     2     1     4 1   
     3     1    21 1   
     4     2    21 1   
     5     2    30 1   
     6     2    31 1   
     7     2    57 1   
     8     5     6 1   
     9     5    16 1   
    10     5    23 2   
    11     6     7 ar  
    12     6     9 ar  
    13     7     8 ar  
    14     7    32 1   
    15     8    11 ar  
    16     8    33 1   
    17     9    10 ar  
    18     9    34 1   
    19    10    11 ar  
    20    10    35 1   
    21    11    15 1   
    22    12    13 1   
    23    12    28 2   
    24    12    57 1   
    25    13    14 1   
    26    13    36 1   
    27    13    37 1   
    28    14    16 1   
    29    14    29 1   
    30    14    38 1   
    31    15    24 1   
    32    15    25 2   
    33    16    39 1   
    34    16    40 1   
    35    17    18 1   
    36    17    41 1   
    37    17    42 1   
    38    17    43 1   
    39    18    19 1   
    40    18    44 1   
    41    18    45 1   
    42    19    20 1   
    43    19    46 1   
    44    19    47 1   
    45    20    26 1   
    46    20    48 1   
    47    20    49 1   
    48    21    22 1   
    49    21    50 1   
    50    22    51 1   
    51    22    56 1   
    52    23    29 1   
    53    24    53 1   
    54    24    54 1   
    55    25    55 1   
    56    26    56 1   
    57    27    56 2   
    58    52    57 1   
@<TRIPOS>SUBSTRUCTURE
     1 N9U         1 TEMP              0 ****  ****    0 ROOT
