@<TRIPOS>MOLECULE
N9U
   57    58     1     0     0
SMALL
abcg2


@<TRIPOS>ATOM
      1 C10         55.9530   114.3630    69.9220 c          1 N9U       0.709000
      2 C13         55.0670   112.0190    69.7430 c3         1 N9U       0.103000
      3 O11         55.3040   115.3760    69.5620 o          1 N9U      -0.714500
      4 O12         57.1660   114.1250    69.7170 o          1 N9U      -0.714500
      5 C22         53.3130   105.9820    73.3110 ce         1 N9U       0.343900
      6 C23         52.6670   104.8560    73.9870 ca         1 N9U      -0.094900
      7 C24         53.1330   103.5430    73.8400 ca         1 N9U      -0.095500
      8 C25         52.5030   102.4960    74.4890 ca         1 N9U      -0.085000
      9 C26         51.5540   105.0830    74.8040 ca         1 N9U      -0.095500
     10 C27         50.9190   104.0300    75.4440 ca         1 N9U      -0.085000
     11 C28         51.3850   102.7230    75.2990 ca         1 N9U      -0.140900
     12 C15         54.6610   110.0950    71.2280 c          1 N9U       0.603100
     13 C17         53.5610   109.2250    71.8190 c3         1 N9U      -0.170400
     14 C18         54.0520   108.1220    72.7270 c5         1 N9U       0.138300
     15 C29         50.6850   101.6090    76.0010 ce         1 N9U       0.663800
     16 C19         52.9570   107.4270    73.5280 c5         1 N9U      -0.169700
     17 C01         54.4920   109.5410    76.7820 c3         1 N9U      -0.090100
     18 C02         53.5380   110.5190    76.1010 c3         1 N9U      -0.074400
     19 C03         54.2000   111.2590    74.9410 c3         1 N9U      -0.094400
     20 C04         53.2300   112.1600    74.2060 c3         1 N9U       0.184600
     21 C09         55.1730   113.2500    70.6700 c3         1 N9U      -0.058300
     22 N08         53.8610   113.7310    71.0650 ns         1 N9U      -0.462900
     23 N21         54.2200   105.8130    72.4230 n2         1 N9U      -0.257700
     24 N30         51.4550   100.5130    76.2840 nv         1 N9U      -1.088200
     25 N31         49.4270   101.7190    76.2540 n2         1 N9U      -0.830100
     26 O05         53.8880   112.6100    73.0040 os         1 N9U      -0.459100
     27 O07         52.1160   113.9370    72.5110 o          1 N9U      -0.598000
     28 O16         55.8320   110.0280    71.5990 o          1 N9U      -0.601100
     29 O20         54.6490   107.0450    71.9280 os         1 N9U      -0.271000
     30 H1          56.0660   111.6330    69.5550 h1         1 N9U       0.066700
     31 H2          54.6270   112.3210    68.7920 h1         1 N9U       0.066700
     32 H5          53.9940   103.3490    73.2150 ha         1 N9U       0.127500
     33 H6          52.8770   101.4900    74.3470 ha         1 N9U       0.126000
     34 H7          51.1780   106.0880    74.9410 ha         1 N9U       0.127500
     35 H8          50.0580   104.2150    76.0710 ha         1 N9U       0.126000
     36 H9          52.9040   109.8820    72.3950 hc         1 N9U       0.064700
     37 H10         52.9470   108.8020    71.0210 hc         1 N9U       0.064700
     38 H11         54.8420   108.4890    73.3820 h1         1 N9U       0.090700
     39 H12         52.9710   107.7070    74.5800 hc         1 N9U       0.070700
     40 H13         51.9540   107.6300    73.1420 hc         1 N9U       0.070700
     41 H14         54.0020   109.0170    77.6060 hc         1 N9U       0.031367
     42 H15         54.8480   108.7900    76.0710 hc         1 N9U       0.031367
     43 H16         55.3650   110.0610    77.1840 hc         1 N9U       0.031367
     44 H17         53.1620   111.2420    76.8320 hc         1 N9U       0.031200
     45 H18         52.6650   109.9740    75.7260 hc         1 N9U       0.031200
     46 H19         54.6110   110.5330    74.2360 hc         1 N9U       0.061700
     47 H20         55.0440   111.8520    75.3050 hc         1 N9U       0.061700
     48 H21         52.9430   113.0220    74.8090 h1         1 N9U       0.035700
     49 H22         52.3220   111.6210    73.9260 h1         1 N9U       0.035700
     50 H23         55.7330   112.9730    71.5590 h1         1 N9U       0.075700
     51 H24         53.5070   114.4980    70.5110 hn         1 N9U       0.353500
     52 H25         53.2480   111.0040    70.0990 hn         1 N9U       0.297500
     53 H27         52.4530   100.6250    76.3670 hn         1 N9U       0.465500
     54 H28         51.0540    99.8000    76.8750 hn         1 N9U       0.465500
     55 H29         49.0880   100.9010    76.7600 hn         1 N9U       0.365400
     56 C06         53.2070   113.4640    72.2110 c          1 N9U       0.622100
     57 N14         54.2370   110.9600    70.2870 ns         1 N9U      -0.492900
@<TRIPOS>BOND
     1     1     3 1   
     2     1     4 1   
     3     1    21 1   
     4     2    21 1   
     5     2    30 1   
     6     2    31 1   
     7     2    57 1   
     8     5     6 1   
     9     5    16 1   
    10     5    23 2   
    11     6     7 ar  
    12     6     9 ar  
    13     7     8 ar  
    14     7    32 1   
    15     8    11 ar  
    16     8    33 1   
    17     9    10 ar  
    18     9    34 1   
    19    10    11 ar  
    20    10    35 1   
    21    11    15 1   
    22    12    13 1   
    23    12    28 2   
    24    12    57 1   
    25    13    14 1   
    26    13    36 1   
    27    13    37 1   
    28    14    16 1   
    29    14    29 1   
    30    14    38 1   
    31    15    24 1   
    32    15    25 2   
    33    16    39 1   
    34    16    40 1   
    35    17    18 1   
    36    17    41 1   
    37    17    42 1   
    38    17    43 1   
    39    18    19 1   
    40    18    44 1   
    41    18    45 1   
    42    19    20 1   
    43    19    46 1   
    44    19    47 1   
    45    20    26 1   
    46    20    48 1   
    47    20    49 1   
    48    21    22 1   
    49    21    50 1   
    50    22    51 1   
    51    22    56 1   
    52    23    29 1   
    53    24    53 1   
    54    24    54 1   
    55    25    55 1   
    56    26    56 1   
    57    27    56 2   
    58    52    57 1   
@<TRIPOS>SUBSTRUCTURE
     1 N9U         1 TEMP              0 ****  ****    0 ROOT
