@<TRIPOS>MOLECULE
N9W
   46    49     1     0     0
SMALL
No Charge or Current Charge


@<TRIPOS>ATOM
      1 O2          -8.0930    19.3380   -19.4110 o          1 N9W      -0.558100
      2 C1          -7.0790    19.9100   -19.7960 c          1 N9W       0.608700
      3 N1          -7.0150    21.2990   -19.8740 ns         1 N9W      -0.374400
      4 O1          -8.2110    22.1110   -19.7570 oh         1 N9W      -0.433100
      5 C2          -5.8290    19.1460   -20.1940 ca         1 N9W      -0.155600
      6 C7          -4.6280    19.7990   -20.5650 ca         1 N9W      -0.068000
      7 C6          -3.4910    19.0560   -20.9270 ca         1 N9W      -0.111000
      8 C5          -3.5220    17.6480   -20.9240 ca         1 N9W      -0.089300
      9 C4          -4.7120    16.9940   -20.5600 ca         1 N9W      -0.111000
     10 C3          -5.8510    17.7330   -20.1970 ca         1 N9W      -0.068000
     11 C8          -2.2940    16.8250   -21.3170 c3         1 N9W       0.119900
     12 N2          -1.0100    17.3960   -20.8700 na         1 N9W      -0.086700
     13 C20         -0.0660    18.0980   -21.6420 cc         1 N9W      -0.061300
     14 C19         -0.0820    18.4200   -23.1130 c6         1 N9W      -0.058200
     15 C18          1.0610    19.4220   -23.4430 c6         1 N9W       0.170800
     16 N3           2.3340    19.1080   -22.7220 n3         1 N9W      -0.713600
     17 C17          2.9550    17.8280   -23.1370 c3         1 N9W       0.151100
     18 C16          2.1630    19.2270   -21.2410 c6         1 N9W       0.238000
     19 C15          0.9580    18.4330   -20.7690 cd         1 N9W      -0.171400
     20 C14          0.6350    17.9480   -19.4470 ca         1 N9W      -0.081800
     21 C9          -0.5800    17.3220   -19.5510 ca         1 N9W      -0.041200
     22 C13          1.3290    18.0410   -18.2340 ca         1 N9W      -0.065000
     23 C12          0.7310    17.4610   -17.0940 ca         1 N9W      -0.138000
     24 C11         -0.5250    16.8150   -17.1920 ca         1 N9W      -0.093000
     25 C10         -1.1980    16.7400   -18.4320 ca         1 N9W      -0.124000
     26 H1          -6.2250    21.7350   -20.3430 hn         1 N9W       0.331500
     27 H2          -7.9640    22.7930   -19.0880 ho         1 N9W       0.451000
     28 H3          -4.5530    20.8830   -20.5750 ha         1 N9W       0.127500
     29 H4          -2.5830    19.5840   -21.2090 ha         1 N9W       0.125500
     30 H5          -4.7590    15.9070   -20.5550 ha         1 N9W       0.125500
     31 H6          -6.7570    17.1970   -19.9190 ha         1 N9W       0.127500
     32 H7          -2.3800    15.8120   -20.9060 h1         1 N9W       0.069200
     33 H8          -2.2710    16.7280   -22.4090 h1         1 N9W       0.069200
     34 H9          -1.0470    18.8470   -23.4180 hc         1 N9W       0.055200
     35 H10          0.0510    17.5030   -23.7020 hc         1 N9W       0.055200
     36 H11          1.2230    19.4390   -24.5310 h1         1 N9W       0.055200
     37 H12          0.7250    20.4320   -23.1630 h1         1 N9W       0.055200
     38 H14          3.9390    17.7060   -22.6640 h1         1 N9W       0.032367
     39 H15          2.3330    16.9700   -22.8520 h1         1 N9W       0.032367
     40 H16          3.0990    17.8030   -24.2250 h1         1 N9W       0.032367
     41 H17          3.0680    18.8890   -20.7140 h1         1 N9W       0.058700
     42 H18          2.0180    20.2830   -20.9660 h1         1 N9W       0.058700
     43 H19          2.2910    18.5430   -18.1710 ha         1 N9W       0.114000
     44 H20          1.2390    17.5130   -16.1330 ha         1 N9W       0.111000
     45 H21         -0.9770    16.3740   -16.3060 ha         1 N9W       0.111000
     46 H22         -2.1640    16.2490   -18.5090 ha         1 N9W       0.116000
@<TRIPOS>BOND
     1     1     2 2   
     2     2     3 1   
     3     2     5 1   
     4     3     4 1   
     5     3    26 1   
     6     4    27 1   
     7     5     6 ar  
     8     5    10 ar  
     9     6     7 ar  
    10     6    28 1   
    11     7     8 ar  
    12     7    29 1   
    13     8     9 ar  
    14     8    11 1   
    15     9    10 ar  
    16     9    30 1   
    17    10    31 1   
    18    11    12 1   
    19    11    32 1   
    20    11    33 1   
    21    12    13 1   
    22    12    21 1   
    23    13    14 1   
    24    13    19 2   
    25    14    15 1   
    26    14    34 1   
    27    14    35 1   
    28    15    16 1   
    29    15    36 1   
    30    15    37 1   
    31    16    17 1   
    32    16    18 1   
    33    17    38 1   
    34    17    39 1   
    35    17    40 1   
    36    18    19 1   
    37    18    41 1   
    38    18    42 1   
    39    19    20 1   
    40    20    21 ar  
    41    20    22 ar  
    42    21    25 ar  
    43    22    23 ar  
    44    22    43 1   
    45    23    24 ar  
    46    23    44 1   
    47    24    25 ar  
    48    24    45 1   
    49    25    46 1   
@<TRIPOS>SUBSTRUCTURE
     1 N9W         1 TEMP              0 ****  ****    0 ROOT
