@<TRIPOS>MOLECULE
N9W
   46    49     1     0     0
SMALL
abcg2


@<TRIPOS>ATOM
      1 O2          -7.9500    19.5690   -19.8630 o          1 N9W      -0.558100
      2 C1          -6.8750    20.0560   -20.1620 c          1 N9W       0.608700
      3 N1          -6.6730    21.3860   -20.3000 ns         1 N9W      -0.374400
      4 O1          -7.7520    22.2190   -20.2730 oh         1 N9W      -0.433100
      5 C2          -5.6550    19.2270   -20.3810 ca         1 N9W      -0.155600
      6 C7          -4.3670    19.7030   -20.1540 ca         1 N9W      -0.068000
      7 C6          -3.2660    18.8830   -20.3590 ca         1 N9W      -0.111000
      8 C5          -3.4300    17.5760   -20.7970 ca         1 N9W      -0.089300
      9 C4          -4.7210    17.0980   -21.0120 ca         1 N9W      -0.111000
     10 C3          -5.8210    17.9080   -20.8000 ca         1 N9W      -0.068000
     11 C8          -2.2580    16.6580   -21.0570 c3         1 N9W       0.119900
     12 N2          -0.9890    17.1990   -20.6600 na         1 N9W      -0.086700
     13 C20         -0.1750    17.9860   -21.4440 cc         1 N9W      -0.061300
     14 C19         -0.3820    18.2680   -22.8880 c6         1 N9W      -0.058200
     15 C18          0.5840    19.3940   -23.2960 c6         1 N9W       0.170800
     16 N3           1.9290    19.2580   -22.7640 n3         1 N9W      -0.713600
     17 C17          2.6170    18.0860   -23.2670 c3         1 N9W       0.151100
     18 C16          1.9300    19.3310   -21.3090 c6         1 N9W       0.238000
     19 C15          0.8730    18.4540   -20.7080 cd         1 N9W      -0.171400
     20 C14          0.6990    17.9620   -19.3780 ca         1 N9W      -0.081800
     21 C9          -0.4850    17.1880   -19.3840 ca         1 N9W      -0.041200
     22 C13          1.4190    18.0960   -18.1870 ca         1 N9W      -0.065000
     23 C12          0.9480    17.4730   -17.0450 ca         1 N9W      -0.138000
     24 C11         -0.2320    16.7150   -17.0710 ca         1 N9W      -0.093000
     25 C10         -0.9640    16.5630   -18.2360 ca         1 N9W      -0.124000
     26 H1          -5.8980    21.7440   -20.8400 hn         1 N9W       0.331500
     27 H2          -7.7490    22.6280   -19.3990 ho         1 N9W       0.451000
     28 H3          -4.2010    20.7090   -19.7910 ha         1 N9W       0.127500
     29 H4          -2.2780    19.2810   -20.1620 ha         1 N9W       0.125500
     30 H5          -4.8700    16.0780   -21.3470 ha         1 N9W       0.125500
     31 H6          -6.8150    17.5160   -20.9700 ha         1 N9W       0.127500
     32 H7          -2.4160    15.7040   -20.5480 h1         1 N9W       0.069200
     33 H8          -2.2170    16.4160   -22.1210 h1         1 N9W       0.069200
     34 H9          -1.4090    18.5790   -23.0990 hc         1 N9W       0.055200
     35 H10         -0.2070    17.3660   -23.4850 hc         1 N9W       0.055200
     36 H11          0.6360    19.4520   -24.3840 h1         1 N9W       0.055200
     37 H12          0.1800    20.3490   -22.9470 h1         1 N9W       0.055200
     38 H14          3.6690    18.1250   -22.9800 h1         1 N9W       0.032367
     39 H15          2.2150    17.1270   -22.9110 h1         1 N9W       0.032367
     40 H16          2.5740    18.0780   -24.3570 h1         1 N9W       0.032367
     41 H17          2.9230    19.0570   -20.9430 h1         1 N9W       0.058700
     42 H18          1.7750    20.3740   -21.0080 h1         1 N9W       0.058700
     43 H19          2.3300    18.6820   -18.1560 ha         1 N9W       0.114000
     44 H20          1.4940    17.5720   -16.1160 ha         1 N9W       0.111000
     45 H21         -0.5790    16.2400   -16.1630 ha         1 N9W       0.111000
     46 H22         -1.8740    15.9760   -18.2430 ha         1 N9W       0.116000
@<TRIPOS>BOND
     1     1     2 2   
     2     2     3 1   
     3     2     5 1   
     4     3     4 1   
     5     3    26 1   
     6     4    27 1   
     7     5     6 ar  
     8     5    10 ar  
     9     6     7 ar  
    10     6    28 1   
    11     7     8 ar  
    12     7    29 1   
    13     8     9 ar  
    14     8    11 1   
    15     9    10 ar  
    16     9    30 1   
    17    10    31 1   
    18    11    12 1   
    19    11    32 1   
    20    11    33 1   
    21    12    13 1   
    22    12    21 1   
    23    13    14 1   
    24    13    19 2   
    25    14    15 1   
    26    14    34 1   
    27    14    35 1   
    28    15    16 1   
    29    15    36 1   
    30    15    37 1   
    31    16    17 1   
    32    16    18 1   
    33    17    38 1   
    34    17    39 1   
    35    17    40 1   
    36    18    19 1   
    37    18    41 1   
    38    18    42 1   
    39    19    20 1   
    40    20    21 ar  
    41    20    22 ar  
    42    21    25 ar  
    43    22    23 ar  
    44    22    43 1   
    45    23    24 ar  
    46    23    44 1   
    47    24    25 ar  
    48    24    45 1   
    49    25    46 1   
@<TRIPOS>SUBSTRUCTURE
     1 N9W         1 TEMP              0 ****  ****    0 ROOT
