@<TRIPOS>MOLECULE
N9Y
   58    60     1     0     0
SMALL
abcg2


@<TRIPOS>ATOM
      1 C03         15.4300    12.5350   -25.4760 c3         1 N9Y       0.140000
      2 C04         14.3630    12.7700   -24.3900 c3         1 N9Y      -0.145700
      3 C06         14.8440    13.7380   -23.3060 c3         1 N9Y      -0.056400
      4 C07         13.8140    14.0050   -22.2150 c5         1 N9Y      -0.073700
      5 C08         13.3730    12.7780   -21.4080 c5         1 N9Y      -0.074900
      6 C09         12.6600    13.3870   -20.1960 c5         1 N9Y      -0.078400
      7 C10         13.4440    14.6860   -19.8770 c5         1 N9Y      -0.078400
      8 C11         14.3150    14.9690   -21.1270 c5         1 N9Y      -0.074900
      9 C12         13.1330    13.3160   -25.0940 c          1 N9Y       0.630100
     10 C16         11.8000    10.1960   -25.6550 c6         1 N9Y       0.133800
     11 C17         10.8800    10.6510   -26.8070 c6         1 N9Y      -0.102400
     12 C18          9.9940    11.8020   -26.3400 c6         1 N9Y      -0.090400
     13 C19         10.8850    12.9960   -25.9600 c6         1 N9Y       0.013700
     14 C21         10.0990    14.0190   -25.1360 c          1 N9Y       0.606100
     15 C24          8.5180    15.9170   -25.5120 ca         1 N9Y       0.474900
     16 C25          8.1610    16.1730   -24.1850 ca         1 N9Y      -0.173000
     17 C26          7.2620    17.2010   -23.9470 ca         1 N9Y      -0.051000
     18 C27          6.7520    17.9360   -25.0120 ca         1 N9Y      -0.193000
     19 C28          7.1710    17.5990   -26.2910 ca         1 N9Y       0.368900
     20 C30         17.8120    12.5040   -24.7260 c          1 N9Y       0.582900
     21 N02         16.6300    11.9310   -24.9530 n          1 N9Y      -0.290300
     22 N14         12.0440    12.5180   -25.2080 n          1 N9Y      -0.288200
     23 N15         11.9890    11.2390   -24.6330 n7         1 N9Y      -0.586400
     24 N23          9.4120    14.9110   -25.8990 ns         1 N9Y      -0.315900
     25 N29          8.0340    16.6140   -26.5440 nb         1 N9Y      -0.731000
     26 O01         16.4590    10.6320   -24.4760 oh         1 N9Y      -0.455100
     27 O13         13.1240    14.4490   -25.5820 o          1 N9Y      -0.614100
     28 O22         10.0700    13.9790   -23.9150 o          1 N9Y      -0.575100
     29 O31         18.7350    11.9100   -24.1580 o          1 N9Y      -0.620100
     30 H34         15.7300    13.4800   -25.9280 h1         1 N9Y       0.066200
     31 H33         15.0370    11.8870   -26.2620 h1         1 N9Y       0.066200
     32 H05         14.1150    11.8120   -23.9470 hc         1 N9Y       0.105700
     33 H36         15.7420    13.3180   -22.8430 hc         1 N9Y       0.048700
     34 H35         15.1390    14.6820   -23.7750 hc         1 N9Y       0.048700
     35 H37         12.9190    14.4430   -22.6740 hc         1 N9Y       0.064700
     36 H39         12.7380    12.0950   -21.9730 hc         1 N9Y       0.041450
     37 H38         14.2610    12.2210   -21.0900 hc         1 N9Y       0.041450
     38 H41         11.6300    13.6310   -20.4690 hc         1 N9Y       0.040700
     39 H40         12.6150    12.7060   -19.3450 hc         1 N9Y       0.040700
     40 H42         14.0700    14.5590   -18.9920 hc         1 N9Y       0.040700
     41 H43         12.7630    15.5120   -19.6670 hc         1 N9Y       0.040700
     42 H44         15.3640    14.7460   -20.9130 hc         1 N9Y       0.041450
     43 H45         14.2680    16.0110   -21.4480 hc         1 N9Y       0.041450
     44 H47         11.3770     9.3380   -25.1320 h1         1 N9Y       0.064700
     45 H48         12.7790     9.9040   -26.0400 h1         1 N9Y       0.064700
     46 H49         10.2710     9.8150   -27.1540 hc         1 N9Y       0.056200
     47 H50         11.4790    10.9880   -27.6560 hc         1 N9Y       0.056200
     48 H52          9.3070    12.1180   -27.1240 hc         1 N9Y       0.061200
     49 H51          9.3900    11.4960   -25.4820 hc         1 N9Y       0.061200
     50 H20         11.2520    13.4720   -26.8700 h1         1 N9Y       0.086700
     51 H54          8.5770    15.5860   -23.3850 ha         1 N9Y       0.157000
     52 H55          6.9630    17.4260   -22.9310 ha         1 N9Y       0.122000
     53 H56          6.0500    18.7440   -24.8590 ha         1 N9Y       0.126000
     54 H57          6.8010    18.1410   -27.1540 h4         1 N9Y       0.020100
     55 H58         17.8730    13.5320   -25.0990 h5         1 N9Y       0.040200
     56 H46         11.2230    11.2330   -23.9680 hn         1 N9Y       0.430000
     57 H53          9.5440    14.8630   -26.9010 hn         1 N9Y       0.168000
     58 H32         17.3230    10.4520   -24.0500 ho         1 N9Y       0.475000
@<TRIPOS>BOND
     1     1     2 1   
     2     1    21 1   
     3     1    30 1   
     4     1    31 1   
     5     2     3 1   
     6     2     9 1   
     7     2    32 1   
     8     3     4 1   
     9     3    33 1   
    10     3    34 1   
    11     4     5 1   
    12     4     8 1   
    13     4    35 1   
    14     5     6 1   
    15     5    36 1   
    16     5    37 1   
    17     6     7 1   
    18     6    38 1   
    19     6    39 1   
    20     7     8 1   
    21     7    40 1   
    22     7    41 1   
    23     8    42 1   
    24     8    43 1   
    25     9    22 1   
    26     9    27 2   
    27    10    11 1   
    28    10    23 1   
    29    10    44 1   
    30    10    45 1   
    31    11    12 1   
    32    11    46 1   
    33    11    47 1   
    34    12    13 1   
    35    12    48 1   
    36    12    49 1   
    37    13    14 1   
    38    13    22 1   
    39    13    50 1   
    40    14    24 1   
    41    14    28 2   
    42    15    16 ar  
    43    15    24 1   
    44    15    25 ar  
    45    16    17 ar  
    46    16    51 1   
    47    17    18 ar  
    48    17    52 1   
    49    18    19 ar  
    50    18    53 1   
    51    19    25 ar  
    52    19    54 1   
    53    20    21 1   
    54    20    29 2   
    55    20    55 1   
    56    21    26 1   
    57    22    23 1   
    58    23    56 1   
    59    24    57 1   
    60    26    58 1   
@<TRIPOS>SUBSTRUCTURE
     1 N9Y         1 TEMP              0 ****  ****    0 ROOT
