@<TRIPOS>MOLECULE
N9Y
   58    60     1     0     0
SMALL
No Charge or Current Charge


@<TRIPOS>ATOM
      1 C03         15.7270    12.1770   -25.2770 c3         1 N9Y       0.140000
      2 C04         14.6080    12.6630   -24.3280 c3         1 N9Y      -0.145700
      3 C06         15.1320    13.5850   -23.1870 c3         1 N9Y      -0.056400
      4 C07         14.0360    14.1540   -22.2480 c5         1 N9Y      -0.073700
      5 C08         13.2100    13.0950   -21.4740 c5         1 N9Y      -0.074900
      6 C09         12.3870    13.9810   -20.4970 c5         1 N9Y      -0.078400
      7 C10         13.3000    15.2180   -20.2130 c5         1 N9Y      -0.078400
      8 C11         14.5870    14.9610   -21.0470 c5         1 N9Y      -0.074900
      9 C12         13.5160    13.3510   -25.1750 c          1 N9Y       0.630100
     10 C16         11.8120    10.3660   -26.1840 c6         1 N9Y       0.133800
     11 C17         10.9070    11.0180   -27.2670 c6         1 N9Y      -0.102400
     12 C18         10.1450    12.2610   -26.7340 c6         1 N9Y      -0.090400
     13 C19         11.1400    13.3120   -26.1310 c6         1 N9Y       0.013700
     14 C21         10.4320    14.4610   -25.3360 c          1 N9Y       0.606100
     15 C24          8.1940    15.6240   -25.1710 ca         1 N9Y       0.474900
     16 C25          8.3120    16.3290   -23.9570 ca         1 N9Y      -0.173000
     17 C26          7.2890    17.2160   -23.5870 ca         1 N9Y      -0.051000
     18 C27          6.1900    17.3520   -24.4510 ca         1 N9Y      -0.193000
     19 C28          6.1530    16.6030   -25.6380 ca         1 N9Y       0.368900
     20 C30         18.0420    11.8770   -24.2740 c          1 N9Y       0.582900
     21 N02         16.7660    11.3600   -24.6120 n          1 N9Y      -0.290300
     22 N14         12.2860    12.6590   -25.4070 n          1 N9Y      -0.288200
     23 N15         12.0380    11.2690   -25.0320 n7         1 N9Y      -0.586400
     24 N23          9.1180    14.7040   -25.6770 ns         1 N9Y      -0.315900
     25 N29          7.1370    15.7470   -25.9980 nb         1 N9Y      -0.731000
     26 O01         16.4530     9.9620   -24.4090 oh         1 N9Y      -0.455100
     27 O13         13.7260    14.4470   -25.6850 o          1 N9Y      -0.614100
     28 O22         11.0180    15.1290   -24.4940 o          1 N9Y      -0.575100
     29 O31         18.9170    11.1950   -23.7460 o          1 N9Y      -0.620100
     30 H34         16.2000    13.0440   -25.7570 h1         1 N9Y       0.066200
     31 H33         15.2760    11.5730   -26.0760 h1         1 N9Y       0.066200
     32 H05         14.1840    11.7680   -23.8680 hc         1 N9Y       0.105700
     33 H36         15.8590    13.0230   -22.5860 hc         1 N9Y       0.048700
     34 H35         15.6890    14.4190   -23.6320 hc         1 N9Y       0.048700
     35 H37         13.3810    14.7880   -22.8580 hc         1 N9Y       0.064700
     36 H39         12.5630    12.5010   -22.1290 hc         1 N9Y       0.041450
     37 H38         13.8570    12.3930   -20.9320 hc         1 N9Y       0.041450
     38 H41         11.4430    14.2960   -20.9560 hc         1 N9Y       0.040700
     39 H40         12.1290    13.4380   -19.5800 hc         1 N9Y       0.040700
     40 H42         13.5260    15.3300   -19.1460 hc         1 N9Y       0.040700
     41 H43         12.8050    16.1430   -20.5310 hc         1 N9Y       0.040700
     42 H44         15.3260    14.3850   -20.4750 hc         1 N9Y       0.041450
     43 H45         15.0730    15.8940   -21.3560 hc         1 N9Y       0.041450
     44 H47         11.3610     9.4280   -25.8250 h1         1 N9Y       0.064700
     45 H48         12.7790    10.1080   -26.6400 h1         1 N9Y       0.064700
     46 H49         10.2000    10.2750   -27.6600 hc         1 N9Y       0.056200
     47 H50         11.5330    11.3240   -28.1160 hc         1 N9Y       0.056200
     48 H52          9.5540    12.7090   -27.5450 hc         1 N9Y       0.061200
     49 H51          9.4280    11.9360   -25.9660 hc         1 N9Y       0.061200
     50 H20         11.5750    13.8320   -26.9960 h1         1 N9Y       0.086700
     51 H54          9.1660    16.1920   -23.3030 ha         1 N9Y       0.157000
     52 H55          7.3430    17.7790   -22.6560 ha         1 N9Y       0.122000
     53 H56          5.3730    18.0250   -24.2080 ha         1 N9Y       0.126000
     54 H57          5.3090    16.6890   -26.3220 h4         1 N9Y       0.020100
     55 H58         18.1590    12.9480   -24.5280 h5         1 N9Y       0.040200
     56 H46         11.2420    11.2290   -24.3770 hn         1 N9Y       0.430000
     57 H53          8.7500    14.1320   -26.4230 hn         1 N9Y       0.168000
     58 H32         16.1450     9.8960   -23.4750 ho         1 N9Y       0.475000
@<TRIPOS>BOND
     1     1     2 1   
     2     1    21 1   
     3     1    30 1   
     4     1    31 1   
     5     2     3 1   
     6     2     9 1   
     7     2    32 1   
     8     3     4 1   
     9     3    33 1   
    10     3    34 1   
    11     4     5 1   
    12     4     8 1   
    13     4    35 1   
    14     5     6 1   
    15     5    36 1   
    16     5    37 1   
    17     6     7 1   
    18     6    38 1   
    19     6    39 1   
    20     7     8 1   
    21     7    40 1   
    22     7    41 1   
    23     8    42 1   
    24     8    43 1   
    25     9    22 1   
    26     9    27 2   
    27    10    11 1   
    28    10    23 1   
    29    10    44 1   
    30    10    45 1   
    31    11    12 1   
    32    11    46 1   
    33    11    47 1   
    34    12    13 1   
    35    12    48 1   
    36    12    49 1   
    37    13    14 1   
    38    13    22 1   
    39    13    50 1   
    40    14    24 1   
    41    14    28 2   
    42    15    16 ar  
    43    15    24 1   
    44    15    25 ar  
    45    16    17 ar  
    46    16    51 1   
    47    17    18 ar  
    48    17    52 1   
    49    18    19 ar  
    50    18    53 1   
    51    19    25 ar  
    52    19    54 1   
    53    20    21 1   
    54    20    29 2   
    55    20    55 1   
    56    21    26 1   
    57    22    23 1   
    58    23    56 1   
    59    24    57 1   
    60    26    58 1   
@<TRIPOS>SUBSTRUCTURE
     1 N9Y         1 TEMP              0 ****  ****    0 ROOT
