@<TRIPOS>MOLECULE
N9Z
   43    46     1     0     0
SMALL
abcg2


@<TRIPOS>ATOM
      1 C1         -26.2800   -37.7210    -7.1060 c3         1 N9Z       0.076900
      2 C3         -23.7720   -37.7950    -7.0670 cc         1 N9Z      -0.228000
      3 C8         -19.6700   -38.5800   -10.7520 ca         1 N9Z       0.449900
      4 C10        -21.1920   -38.7930   -12.6800 cx         1 N9Z       0.178200
      5 C11        -21.8190   -37.4270   -12.8420 c3         1 N9Z      -0.073100
      6 C12        -21.3710   -39.8190   -13.7600 cx         1 N9Z      -0.125400
      7 C13        -22.0660   -39.9920   -12.4320 cx         1 N9Z      -0.125400
      8 C14        -18.3010   -38.5360   -10.2810 ca         1 N9Z       0.087000
      9 C16        -16.0530   -38.6620   -10.6890 ca         1 N9Z       0.305300
     10 C20        -15.7640   -38.4390    -9.3290 ca         1 N9Z      -0.112000
     11 C21        -16.7920   -38.2600    -8.4370 ca         1 N9Z      -0.085000
     12 C22        -18.1270   -38.3070    -8.8990 ca         1 N9Z       0.073000
     13 N23        -19.1730   -38.1420    -8.0530 nb         1 N9Z      -0.298000
     14 C24        -23.5130   -38.2860    -9.2130 cd         1 N9Z       0.249900
     15 N25        -24.8280   -38.1870    -8.9970 nc         1 N9Z      -0.522800
     16 N2         -24.9660   -37.8910    -7.6970 na         1 N9Z       0.126800
     17 C4         -22.7950   -38.0470    -8.0200 cd         1 N9Z       0.194000
     18 N5         -21.4280   -38.0430    -7.7510 nu         1 N9Z      -0.899900
     19 C6         -20.3810   -38.2090    -8.6070 ca         1 N9Z       0.440900
     20 N7         -20.6770   -38.4160    -9.9100 nb         1 N9Z      -0.317000
     21 N15        -17.2890   -38.7060   -11.1460 nb         1 N9Z      -0.635000
     22 C17        -14.9300   -38.8360   -11.6960 c3         1 N9Z      -0.053600
     23 C18        -15.1160   -40.0200   -12.5250 c1         1 N9Z       0.309900
     24 N19        -15.2670   -40.9600   -13.1700 n1         1 N9Z      -0.459000
     25 H1         -27.0130   -37.7770    -7.9050 h1         1 N9Z       0.057033
     26 H2         -26.4750   -38.5080    -6.3760 h1         1 N9Z       0.057033
     27 H3         -26.3480   -36.7490    -6.6160 h1         1 N9Z       0.057033
     28 H4         -23.6930   -37.5630    -6.0180 h4         1 N9Z       0.154000
     29 H5         -21.9620   -36.9520   -11.8710 hc         1 N9Z       0.049367
     30 H6         -21.1810   -36.7840   -13.4520 hc         1 N9Z       0.049367
     31 H7         -22.7900   -37.5120   -13.3300 hc         1 N9Z       0.049367
     32 H8         -21.9640   -39.5340   -14.6190 hc         1 N9Z       0.081700
     33 H9         -20.5340   -40.4710   -13.9770 hc         1 N9Z       0.081700
     34 H10        -23.1340   -39.8260   -12.3840 hc         1 N9Z       0.081700
     35 H11        -21.6880   -40.7500   -11.7610 hc         1 N9Z       0.081700
     36 H12        -14.7340   -38.4130    -8.9970 ha         1 N9Z       0.124000
     37 H13        -16.6020   -38.0890    -7.3850 ha         1 N9Z       0.138000
     38 H14        -23.1270   -38.5160   -10.1870 h4         1 N9Z       0.063100
     39 H15        -21.1570   -37.8830    -6.7930 hn         1 N9Z       0.512000
     40 H16        -19.0720   -38.8640   -12.6340 hn         1 N9Z       0.526000
     41 H17        -13.9670   -38.9150   -11.1900 hc         1 N9Z       0.079200
     42 H18        -14.8790   -37.9650   -12.3560 hc         1 N9Z       0.079200
     43 N9         -19.8950   -38.7940   -12.0530 nu         1 N9Z      -0.881100
@<TRIPOS>BOND
     1     1    16 1   
     2     1    25 1   
     3     1    26 1   
     4     1    27 1   
     5     2    16 1   
     6     2    17 2   
     7     2    28 1   
     8     3     8 ar  
     9     3    20 ar  
    10     3    43 1   
    11     4     5 1   
    12     4     6 1   
    13     4     7 1   
    14     4    43 1   
    15     5    29 1   
    16     5    30 1   
    17     5    31 1   
    18     6     7 1   
    19     6    32 1   
    20     6    33 1   
    21     7    34 1   
    22     7    35 1   
    23     8    12 ar  
    24     8    21 ar  
    25     9    10 ar  
    26     9    21 ar  
    27     9    22 1   
    28    10    11 ar  
    29    10    36 1   
    30    11    12 ar  
    31    11    37 1   
    32    12    13 ar  
    33    13    19 ar  
    34    14    15 2   
    35    14    17 1   
    36    14    38 1   
    37    15    16 1   
    38    17    18 1   
    39    18    19 1   
    40    18    39 1   
    41    19    20 ar  
    42    22    23 1   
    43    22    41 1   
    44    22    42 1   
    45    23    24 3   
    46    40    43 1   
@<TRIPOS>SUBSTRUCTURE
     1 N9Z         1 TEMP              0 ****  ****    0 ROOT
