@<TRIPOS>MOLECULE
N9Z
   43    46     1     0     0
SMALL
No Charge or Current Charge


@<TRIPOS>ATOM
      1 C1         -26.2750   -37.8070    -6.8320 c3         1 N9Z       0.076900
      2 C3         -23.7270   -37.9500    -6.9130 cc         1 N9Z      -0.228000
      3 C8         -19.6890   -38.5310   -10.8560 ca         1 N9Z       0.449900
      4 C10        -21.2650   -38.6950   -12.8590 cx         1 N9Z       0.178200
      5 C11        -21.7380   -37.2620   -13.0740 c3         1 N9Z      -0.073100
      6 C12        -21.5110   -39.7680   -13.8890 cx         1 N9Z      -0.125400
      7 C13        -22.2160   -39.8250   -12.5530 cx         1 N9Z      -0.125400
      8 C14        -18.3390   -38.5400   -10.3990 ca         1 N9Z       0.087000
      9 C16        -16.0250   -38.6780   -10.7460 ca         1 N9Z       0.305300
     10 C20        -15.7720   -38.5420    -9.3690 ca         1 N9Z      -0.112000
     11 C21        -16.8530   -38.4030    -8.4830 ca         1 N9Z      -0.085000
     12 C22        -18.1630   -38.4000    -8.9940 ca         1 N9Z       0.073000
     13 N23        -19.2220   -38.2680    -8.1670 nb         1 N9Z      -0.298000
     14 C24        -23.6450   -38.1080    -9.1450 cd         1 N9Z       0.249900
     15 N25        -24.9420   -38.0210    -8.8990 nc         1 N9Z      -0.522800
     16 N2         -24.9810   -37.9240    -7.5200 na         1 N9Z       0.126800
     17 C4         -22.8630   -38.0690    -7.9550 cd         1 N9Z       0.194000
     18 N5         -21.4880   -38.1330    -7.8260 nu         1 N9Z      -0.899900
     19 C6         -20.4420   -38.2720    -8.7230 ca         1 N9Z       0.440900
     20 N7         -20.7320   -38.3970   -10.0210 nb         1 N9Z      -0.317000
     21 N15        -17.2800   -38.6750   -11.2540 nb         1 N9Z      -0.635000
     22 C17        -14.8880   -38.8290   -11.7400 c3         1 N9Z      -0.053600
     23 C18        -14.4540   -40.2240   -11.8170 c1         1 N9Z       0.309900
     24 N19        -14.0780   -41.3250   -11.8790 n1         1 N9Z      -0.459000
     25 H1         -26.8910   -38.6860    -7.0580 h1         1 N9Z       0.057033
     26 H2         -26.1150   -37.7450    -5.7490 h1         1 N9Z       0.057033
     27 H3         -26.7910   -36.9020    -7.1740 h1         1 N9Z       0.057033
     28 H4         -23.5740   -37.8840    -5.8440 h4         1 N9Z       0.154000
     29 H5         -21.8540   -36.7320   -12.1210 hc         1 N9Z       0.049367
     30 H6         -21.0280   -36.6990   -13.6920 hc         1 N9Z       0.049367
     31 H7         -22.7090   -37.2400   -13.5830 hc         1 N9Z       0.049367
     32 H8         -22.1040   -39.5080   -14.7630 hc         1 N9Z       0.081700
     33 H9         -20.7210   -40.4910   -14.0750 hc         1 N9Z       0.081700
     34 H10        -23.2790   -39.6010   -12.5300 hc         1 N9Z       0.081700
     35 H11        -21.8950   -40.5820   -11.8420 hc         1 N9Z       0.081700
     36 H12        -14.7520   -38.5470    -8.9940 ha         1 N9Z       0.124000
     37 H13        -16.6780   -38.2980    -7.4140 ha         1 N9Z       0.138000
     38 H14        -23.3120   -38.1940   -10.1710 h4         1 N9Z       0.063100
     39 H15        -21.1620   -38.0640    -6.8610 hn         1 N9Z       0.512000
     40 H16        -19.1240   -38.7500   -12.7740 hn         1 N9Z       0.526000
     41 H17        -14.0360   -38.2090   -11.4440 hc         1 N9Z       0.079200
     42 H18        -15.1920   -38.4980   -12.7390 hc         1 N9Z       0.079200
     43 N9         -19.9800   -38.6620   -12.2210 nu         1 N9Z      -0.881100
@<TRIPOS>BOND
     1     1    16 1   
     2     1    25 1   
     3     1    26 1   
     4     1    27 1   
     5     2    16 1   
     6     2    17 2   
     7     2    28 1   
     8     3     8 ar  
     9     3    20 ar  
    10     3    43 1   
    11     4     5 1   
    12     4     6 1   
    13     4     7 1   
    14     4    43 1   
    15     5    29 1   
    16     5    30 1   
    17     5    31 1   
    18     6     7 1   
    19     6    32 1   
    20     6    33 1   
    21     7    34 1   
    22     7    35 1   
    23     8    12 ar  
    24     8    21 ar  
    25     9    10 ar  
    26     9    21 ar  
    27     9    22 1   
    28    10    11 ar  
    29    10    36 1   
    30    11    12 ar  
    31    11    37 1   
    32    12    13 ar  
    33    13    19 ar  
    34    14    15 2   
    35    14    17 1   
    36    14    38 1   
    37    15    16 1   
    38    17    18 1   
    39    18    19 1   
    40    18    39 1   
    41    19    20 ar  
    42    22    23 1   
    43    22    41 1   
    44    22    42 1   
    45    23    24 3   
    46    40    43 1   
@<TRIPOS>SUBSTRUCTURE
     1 N9Z         1 TEMP              0 ****  ****    0 ROOT
