@<TRIPOS>MOLECULE
NA1
   33    33     1     0     0
SMALL
bcc


@<TRIPOS>ATOM
      1 C1           1.8780    -0.8920     1.5750 c6         1 NA1       0.329900
      2 C2           0.5980    -0.1500     1.9590 c6         1 NA1       0.102700
      3 C3          -0.4420    -0.4220     0.8730 c6         1 NA1       0.142100
      4 C4          -0.6520    -1.9210     0.6450 c6         1 NA1       0.085100
      5 C5           0.6950    -2.6230     0.4260 c6         1 NA1       0.125100
      6 C6           1.2650    -2.4230    -0.9800 c3         1 NA1       0.101400
      7 C7           0.2350     0.2770     4.3510 c          1 NA1       0.682100
      8 C8          -0.3280    -0.3040     5.6250 c3         1 NA1      -0.175100
      9 N2           0.1400    -0.5180     3.2740 ns         1 NA1      -0.539900
     10 O1           2.8090    -0.7380     2.5750 oh         1 NA1      -0.550800
     11 O3          -1.6250     0.2500     1.2090 oh         1 NA1      -0.561800
     12 O4          -1.3210    -2.4460     1.7710 oh         1 NA1      -0.584800
     13 O5           1.6260    -2.2750     1.4300 os         1 NA1      -0.434600
     14 O6           0.4440    -3.1300    -1.8710 os         1 NA1      -0.412600
     15 C9           0.8460    -2.9890    -3.2110 c3         1 NA1       0.122700
     16 O7           0.7270     1.3990     4.3270 o          1 NA1      -0.620100
     17 H1C1         2.2440    -0.4770     0.6220 h2         1 NA1       0.012700
     18 H2           0.8180     0.9190     1.9640 h1         1 NA1       0.103700
     19 H3          -0.0200    -0.0160    -0.0580 h1         1 NA1       0.031700
     20 H4          -1.2620    -2.0540    -0.2590 h1         1 NA1       0.051700
     21 H5           0.5380    -3.7000     0.5420 h1         1 NA1       0.087700
     22 H6C1         2.2950    -2.8060    -0.9990 h1         1 NA1       0.032200
     23 H6C2         1.3160    -1.3630    -1.2680 h1         1 NA1       0.032200
     24 H8C1         0.4360    -0.2830     6.4010 hc         1 NA1       0.057367
     25 H8C2        -1.1560     0.3160     5.9690 hc         1 NA1       0.057367
     26 H8C3        -0.6860    -1.3270     5.5210 hc         1 NA1       0.057367
     27 HA          -0.3080    -1.4160     3.3680 hn         1 NA1       0.336500
     28 HO1          3.6810    -0.9660     2.2350 ho         1 NA1       0.415000
     29 HB          -2.2250     0.2010     0.4580 ho         1 NA1       0.405000
     30 HC          -1.4820    -3.3840     1.6250 ho         1 NA1       0.409000
     31 H9C1         0.8200    -1.9430    -3.5380 h1         1 NA1       0.033033
     32 H9C2         0.1580    -3.5620    -3.8300 h1         1 NA1       0.033033
     33 H9C3         1.8610    -3.3690    -3.3760 h1         1 NA1       0.033033
@<TRIPOS>BOND
     1     1     2 1   
     2     1    10 1   
     3     1    13 1   
     4     1    17 1   
     5     2     3 1   
     6     2     9 1   
     7     2    18 1   
     8     3     4 1   
     9     3    11 1   
    10     3    19 1   
    11     4     5 1   
    12     4    12 1   
    13     4    20 1   
    14     5     6 1   
    15     5    13 1   
    16     5    21 1   
    17     6    14 1   
    18     6    22 1   
    19     6    23 1   
    20     7     8 1   
    21     7     9 1   
    22     7    16 2   
    23     8    24 1   
    24     8    25 1   
    25     8    26 1   
    26     9    27 1   
    27    10    28 1   
    28    11    29 1   
    29    12    30 1   
    30    14    15 1   
    31    15    31 1   
    32    15    32 1   
    33    15    33 1   
@<TRIPOS>SUBSTRUCTURE
     1 NA1         1 TEMP              0 ****  ****    0 ROOT
