@<TRIPOS>MOLECULE
NA1
   33    33     1     0     0
SMALL
No Charge or Current Charge


@<TRIPOS>ATOM
      1 C1           1.9060    -0.8660     1.5070 c6         1 NA1       0.376300
      2 C2           0.6020    -0.0670     1.8490 c6         1 NA1       0.102700
      3 C3          -0.4720    -0.4010     0.7590 c6         1 NA1       0.165300
      4 C4          -0.6950    -1.9440     0.6290 c6         1 NA1       0.108300
      5 C5           0.6790    -2.6590     0.4030 c6         1 NA1       0.148300
      6 C6           1.3060    -2.4110    -1.0090 c3         1 NA1       0.124600
      7 C7           0.3560     0.3620     4.3500 c          1 NA1       0.615100
      8 C8          -0.2380    -0.2220     5.6250 c3         1 NA1      -0.175100
      9 N2           0.0960    -0.3610     3.2130 ns         1 NA1      -0.472900
     10 O1           2.8840    -0.7580     2.5200 oh         1 NA1      -0.613000
     11 O3          -1.7290     0.2220     1.0610 oh         1 NA1      -0.624000
     12 O4          -1.3620    -2.4370     1.8190 oh         1 NA1      -0.707000
     13 O5           1.6270    -2.2720     1.4370 os         1 NA1      -0.481000
     14 O6           0.4530    -2.9880    -2.0140 os         1 NA1      -0.459000
     15 C9           0.9290    -2.8310    -3.3620 c3         1 NA1       0.145900
     16 O7           1.0030     1.3990     4.3400 o          1 NA1      -0.620100
     17 H1C1         2.3270    -0.5120     0.5560 h2         1 NA1       0.012700
     18 H2           0.8330     1.0060     1.7820 h1         1 NA1       0.103700
     19 H3          -0.1050    -0.0200    -0.2050 h1         1 NA1       0.031700
     20 H4          -1.3310    -2.1280    -0.2500 h1         1 NA1       0.051700
     21 H5           0.5230    -3.7440     0.4860 h1         1 NA1       0.087700
     22 H6C1         2.2990    -2.8780    -1.0370 h1         1 NA1       0.032200
     23 H6C2         1.4280    -1.3350    -1.1870 h1         1 NA1       0.032200
     24 H8C1        -0.0180     0.3850     6.5110 hc         1 NA1       0.057367
     25 H8C2        -1.3170    -0.3590     5.4860 hc         1 NA1       0.057367
     26 H8C3         0.1130    -1.2530     5.7430 hc         1 NA1       0.057367
     27 HA          -0.4510    -1.2090     3.3220 hn         1 NA1       0.336500
     28 HO1          2.8840    -1.6520     2.9180 ho         1 NA1       0.454000
     29 HB          -2.1930    -0.4420     1.6190 ho         1 NA1       0.444000
     30 HC          -1.5790    -3.3870     1.6630 ho         1 NA1       0.508000
     31 H9C1         1.0230    -1.7680    -3.6220 h1         1 NA1       0.033033
     32 H9C2         0.2300    -3.2950    -4.0700 h1         1 NA1       0.033033
     33 H9C3         1.9100    -3.3080    -3.4880 h1         1 NA1       0.033033
@<TRIPOS>BOND
     1     1     2 1   
     2     1    10 1   
     3     1    13 1   
     4     1    17 1   
     5     2     3 1   
     6     2     9 1   
     7     2    18 1   
     8     3     4 1   
     9     3    11 1   
    10     3    19 1   
    11     4     5 1   
    12     4    12 1   
    13     4    20 1   
    14     5     6 1   
    15     5    13 1   
    16     5    21 1   
    17     6    14 1   
    18     6    22 1   
    19     6    23 1   
    20     7     8 1   
    21     7     9 1   
    22     7    16 2   
    23     8    24 1   
    24     8    25 1   
    25     8    26 1   
    26     9    27 1   
    27    10    28 1   
    28    11    29 1   
    29    12    30 1   
    30    14    15 1   
    31    15    31 1   
    32    15    32 1   
    33    15    33 1   
@<TRIPOS>SUBSTRUCTURE
     1 NA1         1 TEMP              0 ****  ****    0 ROOT
