@<TRIPOS>MOLECULE
NA3
   25    25     1     0     0
SMALL
No Charge or Current Charge


@<TRIPOS>ATOM
      1 C7          -1.4040     0.3180    -0.4370 ca         1 NA3      -0.001000
      2 C8          -2.5470     0.7930     0.2250 ca         1 NA3      -0.093900
      3 C9          -2.4930     1.0110     1.6120 ca         1 NA3       0.366900
      4 N2          -1.3790     0.7820     2.3460 nb         1 NA3      -0.681000
      5 C10         -0.2780     0.3240     1.7030 ca         1 NA3       0.371900
      6 C6          -0.2370     0.0740     0.3170 ca         1 NA3      -0.176600
      7 Br1         -4.1560     1.1380    -0.7540 br         1 NA3      -0.099100
      8 C5           1.0070    -0.4340    -0.3580 c          1 NA3       0.621700
      9 O4           1.0420    -0.6380    -1.5640 o          1 NA3      -0.617100
     10 N1           2.1070    -0.6750     0.4420 ns         1 NA3      -0.448900
     11 C3           3.4360    -1.1210    -0.0420 c3         1 NA3       0.007700
     12 C2           4.4490     0.0560    -0.1170 c3         1 NA3      -0.231400
     13 C4           3.9730    -2.2860     0.8310 c          1 NA3       0.562900
     14 O3           3.4610    -2.6510     1.8870 o          1 NA3      -0.547100
     15 C1           4.0040     1.1190    -1.1320 c          1 NA3       0.718000
     16 O2           3.3380     2.0600    -0.7300 o          1 NA3      -0.721500
     17 O1           4.3410     0.9700    -2.2970 o          1 NA3      -0.721500
     18 H7          -1.4280     0.1440    -1.5110 ha         1 NA3       0.156000
     19 H9          -3.3640     1.3790     2.1530 h4         1 NA3       0.024100
     20 H10          0.5910     0.1580     2.3380 h4         1 NA3       0.031100
     21 HN1          1.9980    -0.5230     1.4370 hn         1 NA3       0.324500
     22 H3           3.3290    -1.5450    -1.0500 h1         1 NA3       0.115700
     23 H21          5.3920    -0.3960    -0.4490 hc         1 NA3       0.032200
     24 H22          4.4990     0.4840     0.8920 hc         1 NA3       0.032200
     25 H4           4.8780    -2.7960     0.4330 h4         1 NA3      -0.027800
@<TRIPOS>BOND
     1     1     2 ar  
     2     1     6 ar  
     3     1    18 1   
     4     2     3 ar  
     5     2     7 1   
     6     3     4 ar  
     7     3    19 1   
     8     4     5 ar  
     9     5     6 ar  
    10     5    20 1   
    11     6     8 1   
    12     8     9 2   
    13     8    10 1   
    14    10    11 1   
    15    10    21 1   
    16    11    12 1   
    17    11    13 1   
    18    11    22 1   
    19    12    15 1   
    20    12    23 1   
    21    12    24 1   
    22    13    14 2   
    23    13    25 1   
    24    15    16 1   
    25    15    17 1   
@<TRIPOS>SUBSTRUCTURE
     1 NA3         1 TEMP              0 ****  ****    0 ROOT
