@<TRIPOS>MOLECULE
NA3
   25    25     1     0     0
SMALL
abcg2


@<TRIPOS>ATOM
      1 C7          -1.4430    -0.0220    -0.3790 ca         1 NA3      -0.001000
      2 C8          -2.5620     0.5620     0.1840 ca         1 NA3      -0.093900
      3 C9          -2.5170     1.0040     1.5020 ca         1 NA3       0.366900
      4 N2          -1.4290     0.8840     2.2450 nb         1 NA3      -0.681000
      5 C10         -0.3450     0.3420     1.7080 ca         1 NA3       0.371900
      6 C6          -0.2930    -0.1170     0.3970 ca         1 NA3      -0.176600
      7 BR1         -4.1420     0.7590    -0.8120 br         1 NA3      -0.099100
      8 C5           0.9180    -0.7640    -0.1980 c          1 NA3       0.621700
      9 O4           0.8040    -1.6270    -1.0550 o          1 NA3      -0.617100
     10 N1           2.0980    -0.3240     0.2540 ns         1 NA3      -0.448900
     11 C3           3.3490    -0.8870    -0.1780 c3         1 NA3       0.007700
     12 C2           4.4980     0.0780     0.0830 c3         1 NA3      -0.231400
     13 C4           3.6230    -2.2150     0.4790 c          1 NA3       0.562900
     14 O3           2.9190    -2.7410     1.3000 o          1 NA3      -0.547100
     15 C1           4.4710     1.3360    -0.8190 c          1 NA3       0.718000
     16 O2           5.0820     2.3270    -0.3790 o          1 NA3      -0.721500
     17 O1           3.8740     1.2360    -1.9060 o          1 NA3      -0.721500
     18 H7          -1.4480    -0.3880    -1.3970 ha         1 NA3       0.156000
     19 H9          -3.3830     1.4610     1.9660 h4         1 NA3       0.024100
     20 H10          0.5130     0.2510     2.3660 h4         1 NA3       0.031100
     21 HN1          2.1310     0.4380     0.9120 hn         1 NA3       0.324500
     22 H3           3.3180    -1.0740    -1.2570 h1         1 NA3       0.115700
     23 H21          5.4430    -0.4420    -0.1070 hc         1 NA3       0.032200
     24 H22          4.5230     0.3630     1.1390 hc         1 NA3       0.032200
     25 H4           4.5540    -2.6960     0.1260 h4         1 NA3      -0.027800
@<TRIPOS>BOND
     1     1     2 ar  
     2     1     6 ar  
     3     1    18 1   
     4     2     3 ar  
     5     2     7 1   
     6     3     4 ar  
     7     3    19 1   
     8     4     5 ar  
     9     5     6 ar  
    10     5    20 1   
    11     6     8 1   
    12     8     9 2   
    13     8    10 1   
    14    10    11 1   
    15    10    21 1   
    16    11    12 1   
    17    11    13 1   
    18    11    22 1   
    19    12    15 1   
    20    12    23 1   
    21    12    24 1   
    22    13    14 2   
    23    13    25 1   
    24    15    16 1   
    25    15    17 1   
@<TRIPOS>SUBSTRUCTURE
     1 NA3         1 TEMP              0 ****  ****    0 ROOT
