@<TRIPOS>MOLECULE
NA4
   37    38     1     0     0
SMALL
bcc


@<TRIPOS>ATOM
      1 C7          -0.2670     0.1070    -0.1590 ca         1 NA4      -0.052000
      2 C8          -1.3040     0.8600     0.3790 cp         1 NA4      -0.131300
      3 C9          -0.9470     2.0210     1.0680 ca         1 NA4       0.401200
      4 N2           0.3000     2.4380     1.2200 nb         1 NA4      -0.690000
      5 C10          1.2760     1.7000     0.7120 ca         1 NA4       0.409200
      6 C6           1.0480     0.5130     0.0240 ca         1 NA4      -0.257900
      7 C5           2.1480    -0.3060    -0.5680 c          1 NA4       0.690700
      8 O4           1.9690    -0.9590    -1.5850 o          1 NA4      -0.624100
      9 N1           3.3210    -0.2660     0.0820 ns         1 NA4      -0.521900
     10 C3           4.4640    -1.0210    -0.3540 c3         1 NA4       0.010700
     11 C2           5.7400    -0.4980     0.2960 c3         1 NA4      -0.224400
     12 C4           4.3190    -2.4930    -0.0640 c          1 NA4       0.557900
     13 O3           3.4110    -2.9940     0.5460 o          1 NA4      -0.542100
     14 C1           6.1390     0.9180    -0.1790 c          1 NA4       0.931600
     15 O2           5.8200     1.2320    -1.3400 o          1 NA4      -0.831800
     16 O1           6.7820     1.6030     0.6370 o          1 NA4      -0.831800
     17 C15         -4.3970    -1.2790     0.1600 ca         1 NA4      -0.112000
     18 C16         -3.0710    -0.8960     0.2730 ca         1 NA4      -0.143500
     19 C11         -2.7130     0.4530     0.2470 cp         1 NA4      -0.072000
     20 C12         -3.7260     1.4020     0.1010 ca         1 NA4      -0.143500
     21 C13         -5.0510     1.0120    -0.0070 ca         1 NA4      -0.112000
     22 C14         -5.4100    -0.3330     0.0220 ca         1 NA4      -0.127600
     23 C17         -6.8690    -0.7580    -0.0900 c          1 NA4       0.924200
     24 O5          -7.0930    -1.9840    -0.0880 o          1 NA4      -0.831300
     25 O6          -7.7100     0.1560    -0.1720 o          1 NA4      -0.831300
     26 H7          -0.4780    -0.7940    -0.7210 ha         1 NA4       0.158000
     27 H9          -1.7150     2.6350     1.5280 h4         1 NA4       0.012100
     28 H10          2.2820     2.0860     0.8410 h4         1 NA4       0.031100
     29 HN1          3.3630     0.1590     0.9960 hn         1 NA4       0.320500
     30 H3           4.5800    -0.9190    -1.4380 h1         1 NA4       0.112700
     31 H21          6.5630    -1.1750     0.0430 hc         1 NA4       0.026700
     32 H22          5.6500    -0.5310     1.3850 hc         1 NA4       0.026700
     33 H4           5.1510    -3.1030    -0.4620 h4         1 NA4      -0.037800
     34 H12         -3.4790     2.4560     0.0520 ha         1 NA4       0.110500
     35 H13         -5.8190     1.7650    -0.1210 ha         1 NA4       0.142000
     36 H15         -4.6500    -2.3300     0.1900 ha         1 NA4       0.142000
     37 H16         -2.3090    -1.6550     0.4050 ha         1 NA4       0.110500
@<TRIPOS>BOND
     1     1     2 ar  
     2     1     6 ar  
     3     1    26 1   
     4     2     3 ar  
     5     2    19 1   
     6     3     4 ar  
     7     3    27 1   
     8     4     5 ar  
     9     5     6 ar  
    10     5    28 1   
    11     6     7 1   
    12     7     8 2   
    13     7     9 1   
    14     9    10 1   
    15     9    29 1   
    16    10    11 1   
    17    10    12 1   
    18    10    30 1   
    19    11    14 1   
    20    11    31 1   
    21    11    32 1   
    22    12    13 2   
    23    12    33 1   
    24    14    15 1   
    25    14    16 1   
    26    17    18 ar  
    27    17    22 ar  
    28    17    36 1   
    29    18    19 ar  
    30    18    37 1   
    31    19    20 ar  
    32    20    21 ar  
    33    20    34 1   
    34    21    22 ar  
    35    21    35 1   
    36    22    23 1   
    37    23    24 1   
    38    23    25 1   
@<TRIPOS>SUBSTRUCTURE
     1 NA4         1 TEMP              0 ****  ****    0 ROOT
