@<TRIPOS>MOLECULE
NA4
   37    38     1     0     0
SMALL
No Charge or Current Charge


@<TRIPOS>ATOM
      1 C7          -0.2360    -0.1520     0.2090 ca         1 NA4      -0.034000
      2 C8          -1.3040     0.4800     0.8910 cp         1 NA4      -0.066000
      3 C9          -0.9690     1.2170     2.0560 ca         1 NA4       0.335900
      4 N2           0.2900     1.3410     2.5380 nb         1 NA4      -0.690000
      5 C10          1.2890     0.7260     1.8670 ca         1 NA4       0.343900
      6 C6           1.0830    -0.0320     0.6990 ca         1 NA4      -0.192600
      7 C5           2.2250    -0.6980    -0.0210 c          1 NA4       0.623700
      8 O4           2.0490    -1.3450    -1.0440 o          1 NA4      -0.624100
      9 N1           3.4830    -0.5610     0.5340 ns         1 NA4      -0.454900
     10 C3           4.7370    -1.0970    -0.0460 c3         1 NA4       0.010700
     11 C2           5.5630     0.0070    -0.7630 c3         1 NA4      -0.224400
     12 C4           5.5750    -1.8240     1.0400 c          1 NA4       0.557900
     13 O3           5.3290    -1.7850     2.2440 o          1 NA4      -0.542100
     14 C1           4.8050     0.5850    -1.9680 c          1 NA4       0.721000
     15 O2           4.9300     0.0210    -3.0440 o          1 NA4      -0.726500
     16 O1           4.1180     1.5810    -1.7970 o          1 NA4      -0.726500
     17 C15         -4.5150    -0.8810    -0.7090 ca         1 NA4      -0.094000
     18 C16         -3.1870    -0.7840    -0.2570 ca         1 NA4      -0.125500
     19 C11         -2.7190     0.3760     0.4070 cp         1 NA4      -0.072000
     20 C12         -3.6380     1.4350     0.6010 ca         1 NA4      -0.125500
     21 C13         -4.9660     1.3420     0.1500 ca         1 NA4      -0.094000
     22 C14         -5.4260     0.1810    -0.5130 ca         1 NA4      -0.127600
     23 C17         -6.8640     0.0770    -1.0010 c          1 NA4       0.713600
     24 O5          -7.2180    -0.9460    -1.5710 o          1 NA4      -0.726000
     25 O6          -7.6190     1.0200    -0.8080 o          1 NA4      -0.726000
     26 H7          -0.4300    -0.7180    -0.6990 ha         1 NA4       0.140000
     27 H9          -1.7430     1.7180     2.6350 h4         1 NA4       0.012100
     28 H10          2.2820     0.8590     2.2930 h4         1 NA4       0.031100
     29 HN1          3.5490    -0.0450     1.4020 hn         1 NA4       0.320500
     30 H3           4.4910    -1.8720    -0.7840 h1         1 NA4       0.112700
     31 H21          6.4750    -0.4950    -1.1090 hc         1 NA4       0.026700
     32 H22          5.7500     0.7870    -0.0140 hc         1 NA4       0.026700
     33 H4           6.4410    -2.4070     0.6560 h4         1 NA4      -0.037800
     34 H12         -3.3200     2.3500     1.0950 ha         1 NA4       0.092500
     35 H13         -5.6380     2.1810     0.3160 ha         1 NA4       0.124000
     36 H15         -4.8330    -1.7920    -1.2110 ha         1 NA4       0.124000
     37 H16         -2.5210    -1.6280    -0.4140 ha         1 NA4       0.092500
@<TRIPOS>BOND
     1     1     2 ar  
     2     1     6 ar  
     3     1    26 1   
     4     2     3 ar  
     5     2    19 1   
     6     3     4 ar  
     7     3    27 1   
     8     4     5 ar  
     9     5     6 ar  
    10     5    28 1   
    11     6     7 1   
    12     7     8 2   
    13     7     9 1   
    14     9    10 1   
    15     9    29 1   
    16    10    11 1   
    17    10    12 1   
    18    10    30 1   
    19    11    14 1   
    20    11    31 1   
    21    11    32 1   
    22    12    13 2   
    23    12    33 1   
    24    14    15 1   
    25    14    16 1   
    26    17    18 ar  
    27    17    22 ar  
    28    17    36 1   
    29    18    19 ar  
    30    18    37 1   
    31    19    20 ar  
    32    20    21 ar  
    33    20    34 1   
    34    21    22 ar  
    35    21    35 1   
    36    22    23 1   
    37    23    24 1   
    38    23    25 1   
@<TRIPOS>SUBSTRUCTURE
     1 NA4         1 TEMP              0 ****  ****    0 ROOT
