@<TRIPOS>MOLECULE
NA8
   29    30     1     0     0
SMALL
No Charge or Current Charge


@<TRIPOS>ATOM
      1 C11         -4.0790    -0.0920    -0.1480 c          1 NA8       0.718000
      2 N           -2.1060    -1.0210     1.2620 nz         1 NA8      -0.957000
      3 O2          -4.5020    -1.2230    -0.3420 o          1 NA8      -0.660500
      4 C1           0.7610    -0.6960    -0.8170 ca         1 NA8      -0.118000
      5 C2          -0.1910     0.3110    -0.5670 ca         1 NA8      -0.111300
      6 C3           0.2140     1.5080     0.0540 ca         1 NA8      -0.111000
      7 C4           1.5570     1.6990     0.4220 ca         1 NA8      -0.089000
      8 C4A          2.5070     0.6920     0.1730 ca         1 NA8      -0.038000
      9 C5           3.8540     0.8770     0.5400 ca         1 NA8      -0.096000
     10 C6           4.7980    -0.1340     0.2880 ca         1 NA8      -0.102000
     11 C7           4.4000    -1.3310    -0.3310 ca         1 NA8      -0.099000
     12 C8           3.0560    -1.5200    -0.7000 ca         1 NA8      -0.103000
     13 C8A          2.1070    -0.5110    -0.4500 ca         1 NA8      -0.038000
     14 C9          -1.6520     0.1070    -0.9520 c3         1 NA8      -0.047100
     15 C10         -2.5790     0.0610     0.2820 c3         1 NA8      -0.060700
     16 OXT         -4.7810     0.9070    -0.1230 o          1 NA8      -0.660500
     17 H10         -2.5130     1.0250     0.7920 hx         1 NA8       0.085700
     18 HN1         -2.2430    -1.9740     0.8910 hn         1 NA8       0.493667
     19 HN2         -1.1050    -0.9450     1.4970 hn         1 NA8       0.493667
     20 HN3         -2.6150    -1.0070     2.1600 hn         1 NA8       0.493667
     21 H3          -0.5120     2.2940     0.2520 ha         1 NA8       0.125000
     22 H91C        -1.9770     0.9230    -1.6110 hc         1 NA8       0.090200
     23 H92C        -1.7770    -0.8160    -1.5320 hc         1 NA8       0.090200
     24 H4           1.8570     2.6280     0.9010 ha         1 NA8       0.120000
     25 H5           4.1700     1.8000     1.0200 ha         1 NA8       0.118000
     26 H6           5.8380     0.0110     0.5730 ha         1 NA8       0.118000
     27 H7           5.1320    -2.1120    -0.5260 ha         1 NA8       0.118000
     28 H8           2.7560    -2.4490    -1.1790 ha         1 NA8       0.115000
     29 H1           0.4550    -1.6250    -1.2950 ha         1 NA8       0.112000
@<TRIPOS>BOND
     1     1     3 1   
     2     1    15 1   
     3     1    16 1   
     4     2    15 1   
     5     2    18 1   
     6     2    19 1   
     7     2    20 1   
     8     4     5 ar  
     9     4    13 ar  
    10     4    29 1   
    11     5     6 ar  
    12     5    14 1   
    13     6     7 ar  
    14     6    21 1   
    15     7     8 ar  
    16     7    24 1   
    17     8     9 ar  
    18     8    13 ar  
    19     9    10 ar  
    20     9    25 1   
    21    10    11 ar  
    22    10    26 1   
    23    11    12 ar  
    24    11    27 1   
    25    12    13 ar  
    26    12    28 1   
    27    14    15 1   
    28    14    22 1   
    29    14    23 1   
    30    15    17 1   
@<TRIPOS>SUBSTRUCTURE
     1 NA8         1 TEMP              0 ****  ****    0 ROOT
