@<TRIPOS>MOLECULE
NA8
   29    30     1     0     0
SMALL
bcc


@<TRIPOS>ATOM
      1 C11         -4.0160    -0.1580    -0.0770 c          1 NA8       0.928600
      2 N           -2.0990    -1.1510     1.1250 nz         1 NA8      -0.819600
      3 O2          -4.4820    -1.3010     0.0760 o          1 NA8      -0.765800
      4 C1           0.7110    -0.6390    -0.7580 ca         1 NA8      -0.136000
      5 C2          -0.1950     0.3710    -0.5580 ca         1 NA8      -0.111300
      6 C3           0.2480     1.5870     0.0210 ca         1 NA8      -0.129000
      7 C4           1.5560     1.7640     0.3680 ca         1 NA8      -0.107000
      8 C4A          2.5060     0.7340     0.1660 ca         1 NA8      -0.038000
      9 C5           3.8680     0.8880     0.5120 ca         1 NA8      -0.114000
     10 C6           4.7610    -0.1280     0.3000 ca         1 NA8      -0.120000
     11 C7           4.3310    -1.3450    -0.2690 ca         1 NA8      -0.117000
     12 C8           3.0180    -1.5210    -0.6150 ca         1 NA8      -0.121000
     13 C8A          2.0750    -0.4880    -0.4080 ca         1 NA8      -0.038000
     14 C9          -1.6470     0.1960    -0.9010 c3         1 NA8      -0.047100
     15 C10         -2.5330     0.0330     0.3350 c3         1 NA8      -0.032500
     16 OXT         -4.5570     0.8490    -0.5500 o          1 NA8      -0.765800
     17 H10         -2.4290     0.9010     0.9860 hx         1 NA8       0.085700
     18 HN1         -2.5660    -1.9830     0.7540 hn         1 NA8       0.438467
     19 HN2         -1.0880    -1.2960     1.1160 hn         1 NA8       0.438467
     20 HN3         -2.3780    -1.0740     2.1020 hn         1 NA8       0.438467
     21 H3          -0.4650     2.3870     0.1800 ha         1 NA8       0.143000
     22 H91C        -2.0180     1.0690    -1.4380 hc         1 NA8       0.090200
     23 H92C        -1.7780    -0.6660    -1.5610 hc         1 NA8       0.090200
     24 H4           1.8830     2.7020     0.8020 ha         1 NA8       0.138000
     25 H5           4.1970     1.8240     0.9490 ha         1 NA8       0.136000
     26 H6           5.8010    -0.0010     0.5690 ha         1 NA8       0.136000
     27 H7           5.0470    -2.1390    -0.4330 ha         1 NA8       0.136000
     28 H8           2.6870    -2.4550    -1.0530 ha         1 NA8       0.133000
     29 H1           0.3910    -1.5730    -1.2080 ha         1 NA8       0.130000
@<TRIPOS>BOND
     1     1     3 1   
     2     1    15 1   
     3     1    16 1   
     4     2    15 1   
     5     2    18 1   
     6     2    19 1   
     7     2    20 1   
     8     4     5 ar  
     9     4    13 ar  
    10     4    29 1   
    11     5     6 ar  
    12     5    14 1   
    13     6     7 ar  
    14     6    21 1   
    15     7     8 ar  
    16     7    24 1   
    17     8     9 ar  
    18     8    13 ar  
    19     9    10 ar  
    20     9    25 1   
    21    10    11 ar  
    22    10    26 1   
    23    11    12 ar  
    24    11    27 1   
    25    12    13 ar  
    26    12    28 1   
    27    14    15 1   
    28    14    22 1   
    29    14    23 1   
    30    15    17 1   
@<TRIPOS>SUBSTRUCTURE
     1 NA8         1 TEMP              0 ****  ****    0 ROOT
