@<TRIPOS>MOLECULE
NA9
   65    66     1     0     0
SMALL
abcg2


@<TRIPOS>ATOM
      1 C1           7.2540    -5.0550     2.8600 ca         1 NA9      -0.096000
      2 C2           6.0500    -4.6010     3.3830 ca         1 NA9       0.272700
      3 N3           5.7200    -3.3130     3.3910 nb         1 NA9      -0.673000
      4 C4           6.5530    -2.4430     2.8470 ca         1 NA9       0.338900
      5 C5           7.7700    -2.7940     2.2680 ca         1 NA9      -0.172300
      6 C6           8.1220    -4.1330     2.2970 ca         1 NA9      -0.051000
      7 C7           8.6370    -1.7470     1.6240 c3         1 NA9       0.165300
      8 C8           5.0480    -5.5360     3.9850 ce         1 NA9       0.563200
      9 N9           5.1050    -6.8090     3.5090 nv         1 NA9      -1.044200
     10 N10          4.2270    -5.1880     4.8990 n2         1 NA9      -0.874100
     11 N11          8.0030    -1.1500     0.4690 ns         1 NA9      -0.516900
     12 C12          7.8510    -1.8230    -0.6830 c          1 NA9       0.578100
     13 C13          7.2200    -1.0370    -1.8390 c3         1 NA9       0.046700
     14 O14          8.2490    -2.9640    -0.8350 o          1 NA9      -0.562100
     15 C15          6.3090     0.1240    -1.4480 c3         1 NA9      -0.106100
     16 N17          6.6680    -1.9330    -2.8420 n          1 NA9      -0.400800
     17 C18          5.7300    -2.8840    -2.6080 c          1 NA9       0.562100
     18 C19          4.8540    -2.8370    -1.3440 c3         1 NA9       0.128500
     19 O20          5.4950    -3.7490    -3.4420 o          1 NA9      -0.593100
     20 N21          4.4600    -4.1480    -0.9030 n7         1 NA9      -0.850400
     21 C22          5.5080    -4.9830    -0.3610 c3         1 NA9       0.023800
     22 C23          5.0290    -6.4210    -0.1210 c          1 NA9       0.725000
     23 O24          5.7130    -7.1070     0.6780 o          1 NA9      -0.740000
     24 O25          4.0390    -6.8160    -0.7600 o          1 NA9      -0.740000
     25 C26          3.5940    -2.0250    -1.6820 c3         1 NA9      -0.063400
     26 C27          2.5730    -1.9480    -0.5480 c6         1 NA9      -0.055700
     27 C28          3.1420    -1.3610     0.7420 c6         1 NA9      -0.067900
     28 C29          2.0870    -1.2880     1.8420 c6         1 NA9      -0.072900
     29 C30          0.8570    -0.5060     1.3920 c6         1 NA9      -0.072400
     30 C31          0.2860    -1.0780     0.0980 c6         1 NA9      -0.072900
     31 C32          1.3490    -1.1440    -0.9930 c6         1 NA9      -0.067900
     32 H1           7.5110    -6.1030     2.8850 ha         1 NA9       0.155000
     33 H4           6.2410    -1.4030     2.8660 h4         1 NA9      -0.000900
     34 H6           9.0620    -4.4590     1.8710 ha         1 NA9       0.122000
     35 H71          8.8400    -0.9400     2.3290 h1         1 NA9       0.046700
     36 H72          9.6000    -2.1770     1.3440 h1         1 NA9       0.046700
     37 HN91         4.3640    -7.4150     3.8240 hn         1 NA9       0.499500
     38 HN92         5.3700    -6.9410     2.5310 hn         1 NA9       0.499500
     39 HN10         4.3840    -4.2160     5.1420 hn         1 NA9       0.382400
     40 HN11         7.6570    -0.2100     0.5590 hn         1 NA9       0.311500
     41 H13          8.0860    -0.5730    -2.3210 h1         1 NA9       0.054700
     42 H151         5.5130    -0.1560    -0.7600 hc         1 NA9       0.045367
     43 H152         6.8820     0.9290    -0.9890 hc         1 NA9       0.045367
     44 H153         5.8490     0.5390    -2.3440 hc         1 NA9       0.045367
     45 H161         6.7280    -2.2850    -4.9140 h1         1 NA9       0.036033
     46 H162         8.2090    -2.7340    -4.0580 h1         1 NA9       0.036033
     47 H163         7.8140    -1.0320    -4.3300 h1         1 NA9       0.036033
     48 H19          5.3790    -2.3520    -0.5160 h1         1 NA9       0.054700
     49 HN21         3.9950    -4.6430    -1.6530 hn         1 NA9       0.453000
     50 H221         5.8600    -4.5540     0.5780 h1         1 NA9       0.023700
     51 H222         6.4010    -5.0430    -1.0050 h1         1 NA9       0.023700
     52 H261         3.1140    -2.4830    -2.5540 hc         1 NA9       0.033200
     53 H262         3.8750    -1.0150    -1.9920 hc         1 NA9       0.033200
     54 H27          2.2440    -2.9690    -0.3290 hc         1 NA9       0.088700
     55 H281         3.5310    -0.3530     0.5450 hc         1 NA9       0.031950
     56 H282         3.9860    -1.9600     1.0950 hc         1 NA9       0.031950
     57 H291         2.5140    -0.8410     2.7430 hc         1 NA9       0.038950
     58 H292         1.7860    -2.3060     2.1170 hc         1 NA9       0.038950
     59 H301         0.0960    -0.5100     2.1770 hc         1 NA9       0.024700
     60 H302         1.1330     0.5420     1.2330 hc         1 NA9       0.024700
     61 H311        -0.1020    -2.0850     0.2870 hc         1 NA9       0.038950
     62 H312        -0.5640    -0.4790    -0.2390 hc         1 NA9       0.038950
     63 H321         0.9280    -1.5790    -1.9050 hc         1 NA9       0.031950
     64 H322         1.6640    -0.1260    -1.2540 hc         1 NA9       0.031950
     65 C16          7.3930    -2.0080    -4.1000 c3         1 NA9       0.088300
@<TRIPOS>BOND
     1     1     2 ar  
     2     1     6 ar  
     3     1    32 1   
     4     2     3 ar  
     5     2     8 1   
     6     3     4 ar  
     7     4     5 ar  
     8     4    33 1   
     9     5     6 ar  
    10     5     7 1   
    11     6    34 1   
    12     7    11 1   
    13     7    35 1   
    14     7    36 1   
    15     8     9 1   
    16     8    10 2   
    17     9    37 1   
    18     9    38 1   
    19    10    39 1   
    20    11    12 1   
    21    11    40 1   
    22    12    13 1   
    23    12    14 2   
    24    13    15 1   
    25    13    16 1   
    26    13    41 1   
    27    15    42 1   
    28    15    43 1   
    29    15    44 1   
    30    16    17 1   
    31    16    65 1   
    32    17    18 1   
    33    17    19 2   
    34    18    20 1   
    35    18    25 1   
    36    18    48 1   
    37    20    21 1   
    38    20    49 1   
    39    21    22 1   
    40    21    50 1   
    41    21    51 1   
    42    22    23 1   
    43    22    24 1   
    44    25    26 1   
    45    25    52 1   
    46    25    53 1   
    47    26    27 1   
    48    26    31 1   
    49    26    54 1   
    50    27    28 1   
    51    27    55 1   
    52    27    56 1   
    53    28    29 1   
    54    28    57 1   
    55    28    58 1   
    56    29    30 1   
    57    29    59 1   
    58    29    60 1   
    59    30    31 1   
    60    30    61 1   
    61    30    62 1   
    62    31    63 1   
    63    31    64 1   
    64    45    65 1   
    65    46    65 1   
    66    47    65 1   
@<TRIPOS>SUBSTRUCTURE
     1 NA9         1 TEMP              0 ****  ****    0 ROOT
