@<TRIPOS>MOLECULE
NA9
   65    66     1     0     0
SMALL
No Charge or Current Charge


@<TRIPOS>ATOM
      1 C1           6.9880    -5.0160     2.9100 ca         1 NA9      -0.096000
      2 C2           5.8290    -4.4670     3.5020 ca         1 NA9       0.272700
      3 N3           5.6170    -3.1160     3.5310 nb         1 NA9      -0.673000
      4 C4           6.5210    -2.3080     2.9330 ca         1 NA9       0.338900
      5 C5           7.6810    -2.7870     2.2980 ca         1 NA9      -0.172300
      6 C6           7.9230    -4.1700     2.2940 ca         1 NA9      -0.051000
      7 C7           8.6510    -1.8240     1.6380 c3         1 NA9       0.165300
      8 C8           4.7990    -5.3790     4.1810 ce         1 NA9       0.563200
      9 N9           4.6560    -6.6680     3.7840 nv         1 NA9      -1.044200
     10 N10          4.0610    -5.0040     5.1530 n2         1 NA9      -0.874100
     11 N11          8.0740    -1.2030     0.4480 ns         1 NA9      -0.516900
     12 C12          7.9130    -1.8350    -0.7690 c          1 NA9       0.578100
     13 C13          7.2670    -0.9780    -1.9080 c3         1 NA9       0.046700
     14 O14          8.2640    -2.9950    -0.9360 o          1 NA9      -0.562100
     15 C15          6.3850     0.2010    -1.4250 c3         1 NA9      -0.106100
     16 N17          6.6350    -1.7440    -3.0320 n          1 NA9      -0.400800
     17 C18          5.8160    -2.8900    -2.8210 c          1 NA9       0.562100
     18 C19          4.9010    -2.9840    -1.5360 c3         1 NA9       0.128500
     19 O20          5.7510    -3.7590    -3.6890 o          1 NA9      -0.593100
     20 N21          4.5320    -4.3900    -1.1650 n7         1 NA9      -0.850400
     21 C22          5.6200    -5.1980    -0.5230 c3         1 NA9       0.023800
     22 C23          5.2400    -6.6810    -0.1600 c          1 NA9       0.725000
     23 O24          5.1320    -6.9850     1.0220 o          1 NA9      -0.740000
     24 O25          5.0430    -7.4710    -1.0750 o          1 NA9      -0.740000
     25 C26          3.6030    -2.1520    -1.7410 c3         1 NA9      -0.063400
     26 C27          2.6370    -2.0520    -0.5130 c6         1 NA9      -0.055700
     27 C28          3.2950    -1.3760     0.7260 c6         1 NA9      -0.067900
     28 C29          2.3140    -1.3020     1.9210 c6         1 NA9      -0.072900
     29 C30          1.0110    -0.5630     1.5310 c6         1 NA9      -0.072400
     30 C31          0.3470    -1.2200     0.2970 c6         1 NA9      -0.072900
     31 C32          1.3310    -1.2990    -0.8970 c6         1 NA9      -0.067900
     32 H1           7.1550    -6.0900     2.9210 ha         1 NA9       0.155000
     33 H4           6.3040    -1.2410     2.9650 h4         1 NA9      -0.000900
     34 H6           8.8110    -4.5830     1.8200 ha         1 NA9       0.122000
     35 H71          8.9190    -1.0320     2.3500 h1         1 NA9       0.046700
     36 H72          9.5750    -2.3470     1.3570 h1         1 NA9       0.046700
     37 HN91         3.8090    -7.1010     4.1300 hn         1 NA9       0.499500
     38 HN92         4.8470    -6.8420     2.7880 hn         1 NA9       0.499500
     39 HN10         4.2250    -3.9930     5.2770 hn         1 NA9       0.382400
     40 HN11         7.7750    -0.2370     0.5100 hn         1 NA9       0.311500
     41 H13          8.1460    -0.4830    -2.3400 h1         1 NA9       0.054700
     42 H151         5.5890    -0.1470    -0.7610 hc         1 NA9       0.045367
     43 H152         6.9830     0.9430    -0.8830 hc         1 NA9       0.045367
     44 H153         5.9250     0.7100    -2.2800 hc         1 NA9       0.045367
     45 H161         6.4990    -1.7430    -5.1530 h1         1 NA9       0.036033
     46 H162         8.0990    -2.2040    -4.4950 h1         1 NA9       0.036033
     47 H163         7.5700    -0.4940    -4.4780 h1         1 NA9       0.036033
     48 H19          5.4500    -2.5320    -0.7040 h1         1 NA9       0.054700
     49 HN21         4.2440    -4.8740    -2.0280 hn         1 NA9       0.453000
     50 H221         5.9450    -4.7000     0.3990 h1         1 NA9       0.023700
     51 H222         6.4940    -5.2450    -1.1860 h1         1 NA9       0.023700
     52 H261         3.0590    -2.5860    -2.5900 hc         1 NA9       0.033200
     53 H262         3.8810    -1.1420    -2.0630 hc         1 NA9       0.033200
     54 H27          2.3650    -3.0820    -0.2420 hc         1 NA9       0.088700
     55 H281         3.6250    -0.3610     0.4680 hc         1 NA9       0.031950
     56 H282         4.1900    -1.9310     1.0370 hc         1 NA9       0.031950
     57 H291         2.7940    -0.7910     2.7660 hc         1 NA9       0.038950
     58 H292         2.0750    -2.3180     2.2670 hc         1 NA9       0.038950
     59 H301         0.3120    -0.5670     2.3780 hc         1 NA9       0.024700
     60 H302         1.2350     0.4910     1.3140 hc         1 NA9       0.024700
     61 H311        -0.0010    -2.2290     0.5580 hc         1 NA9       0.038950
     62 H312        -0.5450    -0.6480     0.0070 hc         1 NA9       0.038950
     63 H321         0.8400    -1.8050    -1.7390 hc         1 NA9       0.031950
     64 H322         1.5730    -0.2840    -1.2410 hc         1 NA9       0.031950
     65 C16          7.2380    -1.5350    -4.3690 c3         1 NA9       0.088300
@<TRIPOS>BOND
     1     1     2 ar  
     2     1     6 ar  
     3     1    32 1   
     4     2     3 ar  
     5     2     8 1   
     6     3     4 ar  
     7     4     5 ar  
     8     4    33 1   
     9     5     6 ar  
    10     5     7 1   
    11     6    34 1   
    12     7    11 1   
    13     7    35 1   
    14     7    36 1   
    15     8     9 1   
    16     8    10 2   
    17     9    37 1   
    18     9    38 1   
    19    10    39 1   
    20    11    12 1   
    21    11    40 1   
    22    12    13 1   
    23    12    14 2   
    24    13    15 1   
    25    13    16 1   
    26    13    41 1   
    27    15    42 1   
    28    15    43 1   
    29    15    44 1   
    30    16    17 1   
    31    16    65 1   
    32    17    18 1   
    33    17    19 2   
    34    18    20 1   
    35    18    25 1   
    36    18    48 1   
    37    20    21 1   
    38    20    49 1   
    39    21    22 1   
    40    21    50 1   
    41    21    51 1   
    42    22    23 1   
    43    22    24 1   
    44    25    26 1   
    45    25    52 1   
    46    25    53 1   
    47    26    27 1   
    48    26    31 1   
    49    26    54 1   
    50    27    28 1   
    51    27    55 1   
    52    27    56 1   
    53    28    29 1   
    54    28    57 1   
    55    28    58 1   
    56    29    30 1   
    57    29    59 1   
    58    29    60 1   
    59    30    31 1   
    60    30    61 1   
    61    30    62 1   
    62    31    63 1   
    63    31    64 1   
    64    45    65 1   
    65    46    65 1   
    66    47    65 1   
@<TRIPOS>SUBSTRUCTURE
     1 NA9         1 TEMP              0 ****  ****    0 ROOT
