@<TRIPOS>MOLECULE
NAA
   30    30     1     0     0
SMALL
No Charge or Current Charge


@<TRIPOS>ATOM
      1 C1          11.9600    47.2060    19.7190 c6         1 NAA       0.377300
      2 C2          10.6270    47.7260    20.3560 c6         1 NAA       0.101700
      3 C3           9.4660    47.4870    19.3400 c6         1 NAA       0.161300
      4 C4           9.8040    48.0620    17.9310 c6         1 NAA       0.109300
      5 C5          11.2080    47.5580    17.4570 c6         1 NAA       0.156300
      6 C6          11.6720    48.2110    16.1110 c3         1 NAA       0.162600
      7 C7          10.7740    47.4020    22.8960 c          1 NAA       0.614100
      8 C8          11.2360    48.8410    23.1260 c3         1 NAA      -0.181100
      9 N2          10.3170    47.0580    21.6460 ns         1 NAA      -0.504900
     10 O1          13.0870    47.5340    20.5070 oh         1 NAA      -0.637000
     11 O3           9.1460    46.0890    19.2180 oh         1 NAA      -0.669000
     12 O4           8.7570    47.6920    17.0010 oh         1 NAA      -0.729000
     13 O5          12.2030    47.8550    18.4690 os         1 NAA      -0.477000
     14 O6          11.8300    49.6430    16.1840 oh         1 NAA      -0.714000
     15 O7          10.7170    46.5910    23.8070 o          1 NAA      -0.606100
     16 H1          11.9130    46.1170    19.5700 h2         1 NAA       0.036700
     17 H2          10.7190    48.8090    20.5140 h1         1 NAA       0.084700
     18 H3           8.5830    48.0250    19.7160 h1         1 NAA       0.056700
     19 H4           9.8520    49.1580    18.0260 h1         1 NAA       0.069700
     20 H5          11.1740    46.4690    17.3080 h1         1 NAA       0.056700
     21 H61         12.6260    47.7450    15.8300 h1         1 NAA       0.031700
     22 H62         10.9480    47.9490    15.3280 h1         1 NAA       0.031700
     23 H81         11.4670    49.0420    24.1780 hc         1 NAA       0.063033
     24 H82         12.0960    49.0580    22.4850 hc         1 NAA       0.063033
     25 H83         10.4740    49.5290    22.7440 hc         1 NAA       0.063033
     26 HN2          9.9160    46.1300    21.5820 hn         1 NAA       0.325500
     27 HO1         13.7340    47.8550    19.8440 ho         1 NAA       0.461000
     28 HO3          8.6780    46.0370    18.3500 ho         1 NAA       0.467000
     29 HO4          8.7300    48.3870    16.2990 ho         1 NAA       0.518000
     30 HO6         12.2600    49.9290    15.3440 ho         1 NAA       0.506000
@<TRIPOS>BOND
     1     1     2 1   
     2     1    10 1   
     3     1    13 1   
     4     1    16 1   
     5     2     3 1   
     6     2     9 1   
     7     2    17 1   
     8     3     4 1   
     9     3    11 1   
    10     3    18 1   
    11     4     5 1   
    12     4    12 1   
    13     4    19 1   
    14     5     6 1   
    15     5    13 1   
    16     5    20 1   
    17     6    14 1   
    18     6    21 1   
    19     6    22 1   
    20     7     8 1   
    21     7     9 1   
    22     7    15 2   
    23     8    23 1   
    24     8    24 1   
    25     8    25 1   
    26     9    26 1   
    27    10    27 1   
    28    11    28 1   
    29    12    29 1   
    30    14    30 1   
@<TRIPOS>SUBSTRUCTURE
     1 NAA         1 TEMP              0 ****  ****    0 ROOT
