@<TRIPOS>MOLECULE
NAA
   30    30     1     0     0
SMALL
bcc


@<TRIPOS>ATOM
      1 C1          12.0340    47.2310    19.6440 c6         1 NAA       0.330900
      2 C2          10.7210    47.6830    20.2960 c6         1 NAA       0.101700
      3 C3           9.5520    47.4850    19.3320 c6         1 NAA       0.138100
      4 C4           9.8670    48.1410    17.9880 c6         1 NAA       0.086100
      5 C5          11.2180    47.6360    17.4670 c6         1 NAA       0.133100
      6 C6          11.6360    48.2470    16.1470 c3         1 NAA       0.139400
      7 C7          10.6820    47.4570    22.7910 c          1 NAA       0.681100
      8 C8          11.1250    48.8910    22.9440 c3         1 NAA      -0.181100
      9 N2          10.4720    47.0000    21.5370 ns         1 NAA      -0.571900
     10 O1          13.0740    47.5530    20.4890 oh         1 NAA      -0.574800
     11 O3           9.3430    46.0970    19.2010 oh         1 NAA      -0.606800
     12 O4           8.8090    47.8230    17.1160 oh         1 NAA      -0.606800
     13 O5          12.2130    47.9230    18.4320 os         1 NAA      -0.430600
     14 O6          11.6360    49.6510    16.2480 oh         1 NAA      -0.591800
     15 O7          10.4960    46.7380    23.7630 o          1 NAA      -0.606100
     16 H1          11.9980    46.1470    19.4460 h2         1 NAA       0.036700
     17 H2          10.8030    48.7560    20.4830 h1         1 NAA       0.084700
     18 H3           8.6660    47.9720    19.7620 h1         1 NAA       0.056700
     19 H4           9.9360    49.2230    18.1590 h1         1 NAA       0.069700
     20 H5          11.1480    46.5500    17.3010 h1         1 NAA       0.056700
     21 H61         12.6260    47.8540    15.8830 h1         1 NAA       0.031700
     22 H62         10.9440    47.8890    15.3740 h1         1 NAA       0.031700
     23 H81         11.2300    49.1220    24.0000 hc         1 NAA       0.063033
     24 H82         12.0790    49.0720    22.4500 hc         1 NAA       0.063033
     25 H83         10.3980    49.5790    22.5110 hc         1 NAA       0.063033
     26 HN2         10.1760    46.0350    21.4680 hn         1 NAA       0.325500
     27 HO1         13.8500    47.0310    20.2590 ho         1 NAA       0.422000
     28 HO3          8.5780    45.9550    18.6340 ho         1 NAA       0.428000
     29 HO4          8.8090    48.4370    16.3760 ho         1 NAA       0.419000
     30 HO6         11.8580    50.0150    15.3860 ho         1 NAA       0.407000
@<TRIPOS>BOND
     1     1     2 1   
     2     1    10 1   
     3     1    13 1   
     4     1    16 1   
     5     2     3 1   
     6     2     9 1   
     7     2    17 1   
     8     3     4 1   
     9     3    11 1   
    10     3    18 1   
    11     4     5 1   
    12     4    12 1   
    13     4    19 1   
    14     5     6 1   
    15     5    13 1   
    16     5    20 1   
    17     6    14 1   
    18     6    21 1   
    19     6    22 1   
    20     7     8 1   
    21     7     9 1   
    22     7    15 2   
    23     8    23 1   
    24     8    24 1   
    25     8    25 1   
    26     9    26 1   
    27    10    27 1   
    28    11    28 1   
    29    12    29 1   
    30    14    30 1   
@<TRIPOS>SUBSTRUCTURE
     1 NAA         1 TEMP              0 ****  ****    0 ROOT
