@<TRIPOS>MOLECULE
NAD
   70    74     1     0     0
SMALL
No Charge or Current Charge


@<TRIPOS>ATOM
      1 PA          20.3810    51.5350   -18.4310 p5         1 NAD       1.452800
      2 O1A         19.6320    52.7370   -18.8990 o          1 NAD      -0.829500
      3 O2A         20.5430    51.5700   -16.9480 o          1 NAD      -0.829500
      4 O5B         21.8030    51.4170   -19.1840 os         1 NAD      -0.585400
      5 C5B         21.9220    51.7420   -20.5780 c3         1 NAD       0.220600
      6 C4B         22.0190    53.2930   -20.7760 c5         1 NAD       0.141300
      7 O4B         23.3350    53.6420   -21.2840 os         1 NAD      -0.467000
      8 C3B         21.0470    53.8680   -21.8560 c5         1 NAD       0.150300
      9 O3B         20.9350    55.3010   -21.8240 oh         1 NAD      -0.725000
     10 C2B         21.7920    53.4290   -23.1500 c5         1 NAD       0.088300
     11 O2B         21.3700    54.2220   -24.2810 oh         1 NAD      -0.708000
     12 C1B         23.2960    53.6630   -22.7330 c5         1 NAD       0.271300
     13 N9A         24.3140    52.7510   -23.2610 na         1 NAD      -0.279300
     14 C8A         24.1340    51.4050   -23.6060 cc         1 NAD       0.428700
     15 N7A         25.2680    50.8640   -24.0940 nd         1 NAD      -0.579100
     16 C5A         26.1770    51.9250   -24.0430 ca         1 NAD      -0.097600
     17 C6A         27.5360    51.9640   -24.4220 ca         1 NAD       0.440900
     18 N6A         28.1890    50.8840   -24.9270 nv         1 NAD      -1.071900
     19 N1A         28.2620    53.0850   -24.2900 nb         1 NAD      -0.314000
     20 C2A         27.6110    54.1600   -23.7840 ca         1 NAD       0.166900
     21 N3A         26.3130    54.2150   -23.3980 nb         1 NAD      -0.205000
     22 C4A         25.6140    53.0710   -23.5390 ca         1 NAD       0.126500
     23 O3          19.7050    50.2310   -19.0000 os         1 NAD      -0.706800
     24 PN          19.9510    48.9350   -18.1470 p5         1 NAD       1.457800
     25 O1N         19.0640    48.8380   -16.9530 o          1 NAD      -0.843500
     26 O2N         21.3750    48.6540   -17.8140 o          1 NAD      -0.843500
     27 O5D         19.4170    47.8970   -19.2550 os         1 NAD      -0.604400
     28 C5D         20.3070    47.3840   -20.2620 c3         1 NAD       0.213600
     29 C4D         20.5680    45.8650   -20.0180 c5         1 NAD       0.152300
     30 O4D         20.8490    45.5980   -18.6090 os         1 NAD      -0.430000
     31 C3D         19.3380    44.9580   -20.3900 c5         1 NAD       0.127300
     32 O3D         19.7240    43.6890   -20.9400 oh         1 NAD      -0.725000
     33 C2D         18.6890    44.7340   -18.9960 c5         1 NAD       0.071300
     34 O2D         17.8080    43.5850   -19.0040 oh         1 NAD      -0.733000
     35 C1D         19.9840    44.5320   -18.1560 c5         1 NAD       0.278300
     36 N1N         19.8100    44.5440   -16.6920 na         1 NAD       0.046300
     37 C2N         19.9140    45.7130   -15.9160 ca         1 NAD       0.012000
     38 C3N         19.6690    45.7360   -14.5210 ca         1 NAD      -0.139600
     39 C7N         19.7740    47.0000   -13.7020 c          1 NAD       0.603700
     40 O7N         19.8850    46.9770   -12.4870 o          1 NAD      -0.649100
     41 N7N         19.7650    48.1940   -14.3250 nt         1 NAD      -0.551000
     42 C4N         19.3480    44.5270   -13.8720 ca         1 NAD       0.018000
     43 C5N         19.2600    43.3440   -14.6170 ca         1 NAD      -0.153000
     44 C6N         19.4900    43.3670   -16.0020 ca         1 NAD      -0.030300
     45 H51A        22.8160    51.2620   -20.9960 h1         1 NAD       0.026700
     46 H52A        21.0570    51.3540   -21.1320 h1         1 NAD       0.026700
     47 H4B         21.8700    53.7890   -19.8080 h1         1 NAD       0.100700
     48 H3B         20.0530    53.3990   -21.7860 h1         1 NAD       0.124700
     49 HO3A        20.9380    55.5450   -22.7840 ho         1 NAD       0.514000
     50 H2B         21.5940    52.3650   -23.3400 h1         1 NAD       0.074700
     51 HO2A        21.7400    53.8080   -25.0980 ho         1 NAD       0.511000
     52 H1B         23.5990    54.6640   -23.0660 h2         1 NAD       0.104700
     53 H8A         23.1910    50.8870   -23.4810 h5         1 NAD       0.082800
     54 H61A        29.2050    50.8860   -24.9000 hn         1 NAD       0.499000
     55 H62A        27.7300    49.9820   -24.8320 hn         1 NAD       0.499000
     56 H2A         28.1900    55.0760   -23.6750 h5         1 NAD       0.038100
     57 H51N        19.8750    47.5190   -21.2620 h1         1 NAD       0.060200
     58 H52N        21.2710    47.9100   -20.2570 h1         1 NAD       0.060200
     59 H4D         21.4440    45.5760   -20.6140 h1         1 NAD       0.085700
     60 H3D         18.6460    45.4780   -21.0700 h1         1 NAD       0.095700
     61 HO3N        19.0700    43.0580   -20.5460 ho         1 NAD       0.515000
     62 H2D         18.1650    45.6430   -18.6570 h1         1 NAD       0.119700
     63 HO2N        16.8770    43.9140   -19.0700 ho         1 NAD       0.532000
     64 H1D         20.4450    43.5680   -18.4000 h2         1 NAD       0.087700
     65 H2N         20.2410    46.6070   -16.4420 h4         1 NAD       0.249000
     66 H71N        19.5570    48.2800   -15.3160 hn         1 NAD       0.372000
     67 H72N        19.8350    49.0280   -13.7650 hn         1 NAD       0.372000
     68 H4N         19.1650    44.5030   -12.7990 ha         1 NAD       0.164000
     69 H5N         19.0090    42.4070   -14.1220 ha         1 NAD       0.148000
     70 H6N         19.4080    42.4520   -16.5920 h4         1 NAD       0.168000
@<TRIPOS>BOND
     1     1     2 1   
     2     1     3 1   
     3     1     4 1   
     4     1    23 1   
     5     4     5 1   
     6     5     6 1   
     7     5    45 1   
     8     5    46 1   
     9     6     7 1   
    10     6     8 1   
    11     6    47 1   
    12     7    12 1   
    13     8     9 1   
    14     8    10 1   
    15     8    48 1   
    16     9    49 1   
    17    10    11 1   
    18    10    12 1   
    19    10    50 1   
    20    11    51 1   
    21    12    13 1   
    22    12    52 1   
    23    13    14 1   
    24    13    22 1   
    25    14    15 2   
    26    14    53 1   
    27    15    16 1   
    28    16    17 ar  
    29    16    22 ar  
    30    17    18 1   
    31    17    19 ar  
    32    18    54 1   
    33    18    55 1   
    34    19    20 ar  
    35    20    21 ar  
    36    20    56 1   
    37    21    22 ar  
    38    23    24 1   
    39    24    25 1   
    40    24    26 1   
    41    24    27 1   
    42    27    28 1   
    43    28    29 1   
    44    28    57 1   
    45    28    58 1   
    46    29    30 1   
    47    29    31 1   
    48    29    59 1   
    49    30    35 1   
    50    31    32 1   
    51    31    33 1   
    52    31    60 1   
    53    32    61 1   
    54    33    34 1   
    55    33    35 1   
    56    33    62 1   
    57    34    63 1   
    58    35    36 1   
    59    35    64 1   
    60    36    37 1   
    61    36    44 2   
    62    37    38 ar  
    63    37    65 1   
    64    38    39 1   
    65    38    42 ar  
    66    39    40 2   
    67    39    41 1   
    68    41    66 1   
    69    41    67 1   
    70    42    43 ar  
    71    42    68 1   
    72    43    44 ar  
    73    43    69 1   
    74    44    70 1   
@<TRIPOS>SUBSTRUCTURE
     1 NAD         1 TEMP              0 ****  ****    0 ROOT
