@<TRIPOS>MOLECULE
NAD
   70    74     1     0     0
SMALL
bcc


@<TRIPOS>ATOM
      1 PA          19.2150    51.6510   -19.1390 p5         1 NAD       1.452800
      2 O1A         18.8730    52.3710   -20.4060 o          1 NAD      -0.829500
      3 O2A         18.4330    51.8230   -17.8810 o          1 NAD      -0.829500
      4 O5B         20.7750    51.9420   -18.7330 os         1 NAD      -0.562200
      5 C5B         21.8100    51.6880   -19.6540 c3         1 NAD       0.197400
      6 C4B         22.6190    52.9600   -19.8690 c5         1 NAD       0.118100
      7 O4B         23.7590    52.6400   -20.6770 os         1 NAD      -0.420600
      8 C3B         21.8700    54.0560   -20.6170 c5         1 NAD       0.127100
      9 O3B         22.4330    55.2940   -20.2580 oh         1 NAD      -0.602800
     10 C2B         22.1930    53.6950   -22.0620 c5         1 NAD       0.065100
     11 O2B         21.9990    54.7750   -22.9220 oh         1 NAD      -0.585800
     12 C1B         23.6580    53.2580   -21.9310 c5         1 NAD       0.218800
     13 N9A         24.0960    52.3420   -22.9540 na         1 NAD      -0.250000
     14 C8A         23.6150    51.0850   -23.2060 cc         1 NAD       0.428700
     15 N7A         24.2290    50.4810   -24.1780 nd         1 NAD      -0.579100
     16 C5A         25.1720    51.3840   -24.5980 ca         1 NAD      -0.228200
     17 C6A         26.1540    51.3440   -25.6050 ca         1 NAD       0.769200
     18 N6A         26.3170    50.2950   -26.4130 nv         1 NAD      -0.961500
     19 N1A         26.9420    52.4150   -25.7540 nb         1 NAD      -0.840000
     20 C2A         26.7670    53.4650   -24.9550 ca         1 NAD       0.692900
     21 N3A         25.8850    53.6190   -23.9830 nb         1 NAD      -0.731000
     22 C4A         25.1100    52.5460   -23.8460 ca         1 NAD       0.454800
     23 O3          19.2730    50.0570   -19.5710 os         1 NAD      -0.706800
     24 PN          19.5220    48.7890   -18.5740 p5         1 NAD       1.457800
     25 O1N         18.1990    48.2850   -18.0610 o          1 NAD      -0.843500
     26 O2N         20.6380    49.0660   -17.6180 o          1 NAD      -0.843500
     27 O5D         19.9890    47.6990   -19.7020 os         1 NAD      -0.581200
     28 C5D         21.3530    47.4630   -19.9730 c3         1 NAD       0.190400
     29 C4D         21.7400    46.0550   -19.5850 c5         1 NAD       0.129100
     30 O4D         21.6510    45.8850   -18.1520 os         1 NAD      -0.383600
     31 C3D         20.8600    44.9620   -20.1960 c5         1 NAD       0.104100
     32 O3D         21.6780    43.8680   -20.5230 oh         1 NAD      -0.602800
     33 C2D         19.9270    44.6110   -19.0350 c5         1 NAD       0.048100
     34 O2D         19.4040    43.3200   -19.0670 oh         1 NAD      -0.610800
     35 C1D         20.8990    44.7690   -17.8660 c5         1 NAD       0.225800
     36 N1N         20.1690    44.9370   -16.5880 na         1 NAD       0.024900
     37 C2N         19.8370    46.1470   -16.1160 ca         1 NAD       0.044700
     38 C3N         19.0510    46.2540   -14.9850 ca         1 NAD      -0.139600
     39 C7N         18.6610    47.5830   -14.3960 c          1 NAD       0.670700
     40 O7N         18.6480    47.7060   -13.1790 o          1 NAD      -0.649100
     41 N7N         18.3250    48.5240   -15.2700 nt         1 NAD      -0.618000
     42 C4N         18.6470    45.0960   -14.3320 ca         1 NAD       0.000000
     43 C5N         19.0040    43.8610   -14.8450 ca         1 NAD      -0.171000
     44 C6N         19.7690    43.8080   -15.9830 ca         1 NAD      -0.048300
     45 H51A        22.4630    50.9100   -19.2460 h1         1 NAD       0.026700
     46 H52A        21.4330    51.3180   -20.6130 h1         1 NAD       0.026700
     47 H4B         22.9700    53.3300   -18.9010 h1         1 NAD       0.100700
     48 H3B         20.7930    54.0240   -20.4250 h1         1 NAD       0.124700
     49 HO3A        22.0540    55.9760   -20.8230 ho         1 NAD       0.415000
     50 H2B         21.5730    52.8350   -22.3500 h1         1 NAD       0.074700
     51 HO2A        21.9500    54.4570   -23.8280 ho         1 NAD       0.412000
     52 H1B         24.3160    54.1300   -22.0020 h2         1 NAD       0.104700
     53 H8A         22.8070    50.6580   -22.6310 h5         1 NAD       0.082800
     54 H61A        27.0870    50.2740   -27.0590 hn         1 NAD       0.443800
     55 H62A        25.8030    49.4450   -26.2640 hn         1 NAD       0.443800
     56 H2A         27.4380    54.2990   -25.1280 h5         1 NAD       0.038100
     57 H51N        21.5300    47.5710   -21.0470 h1         1 NAD       0.060200
     58 H52N        22.0050    48.1750   -19.4620 h1         1 NAD       0.060200
     59 H4D         22.7800    45.9020   -19.8870 h1         1 NAD       0.085700
     60 H3D         20.3050    45.3270   -21.0690 h1         1 NAD       0.095700
     61 HO3N        21.1090    43.1060   -20.6770 ho         1 NAD       0.416000
     62 H2D         19.1460    45.3750   -18.9500 h1         1 NAD       0.119700
     63 HO2N        18.4980    43.3540   -19.3880 ho         1 NAD       0.433000
     64 H1D         21.5150    43.8710   -17.7360 h2         1 NAD       0.087700
     65 H2N         20.2520    47.0080   -16.6240 h4         1 NAD       0.267000
     66 H71N        18.2660    48.3770   -16.2870 hn         1 NAD       0.372000
     67 H72N        18.0710    49.4350   -14.9210 hn         1 NAD       0.372000
     68 H4N         18.0530    45.1590   -13.4310 ha         1 NAD       0.182000
     69 H5N         18.7040    42.9410   -14.3670 ha         1 NAD       0.166000
     70 H6N         20.0880    42.8750   -16.4210 h4         1 NAD       0.186000
@<TRIPOS>BOND
     1     1     2 1   
     2     1     3 1   
     3     1     4 1   
     4     1    23 1   
     5     4     5 1   
     6     5     6 1   
     7     5    45 1   
     8     5    46 1   
     9     6     7 1   
    10     6     8 1   
    11     6    47 1   
    12     7    12 1   
    13     8     9 1   
    14     8    10 1   
    15     8    48 1   
    16     9    49 1   
    17    10    11 1   
    18    10    12 1   
    19    10    50 1   
    20    11    51 1   
    21    12    13 1   
    22    12    52 1   
    23    13    14 1   
    24    13    22 1   
    25    14    15 2   
    26    14    53 1   
    27    15    16 1   
    28    16    17 ar  
    29    16    22 ar  
    30    17    18 1   
    31    17    19 ar  
    32    18    54 1   
    33    18    55 1   
    34    19    20 ar  
    35    20    21 ar  
    36    20    56 1   
    37    21    22 ar  
    38    23    24 1   
    39    24    25 1   
    40    24    26 1   
    41    24    27 1   
    42    27    28 1   
    43    28    29 1   
    44    28    57 1   
    45    28    58 1   
    46    29    30 1   
    47    29    31 1   
    48    29    59 1   
    49    30    35 1   
    50    31    32 1   
    51    31    33 1   
    52    31    60 1   
    53    32    61 1   
    54    33    34 1   
    55    33    35 1   
    56    33    62 1   
    57    34    63 1   
    58    35    36 1   
    59    35    64 1   
    60    36    37 1   
    61    36    44 2   
    62    37    38 ar  
    63    37    65 1   
    64    38    39 1   
    65    38    42 ar  
    66    39    40 2   
    67    39    41 1   
    68    41    66 1   
    69    41    67 1   
    70    42    43 ar  
    71    42    68 1   
    72    43    44 ar  
    73    43    69 1   
    74    44    70 1   
@<TRIPOS>SUBSTRUCTURE
     1 NAD         1 TEMP              0 ****  ****    0 ROOT
