@<TRIPOS>MOLECULE
NAE
   78    82     1     0     0
SMALL
No Charge or Current Charge


@<TRIPOS>ATOM
      1 PA          17.5610     4.0180    32.2840 p5         1 NAE       1.526800
      2 O1A         17.8190     2.9650    31.2510 o          1 NAE      -0.856500
      3 O2A         18.8280     4.6100    32.7960 o          1 NAE      -0.856500
      4 O5          16.6830     3.3970    33.4830 os         1 NAE      -0.595400
      5 C5          15.9440     2.1720    33.3430 c3         1 NAE       0.201600
      6 C4          16.7010     1.0230    34.0800 c5         1 NAE       0.151300
      7 O4          15.9160    -0.1910    34.0370 os         1 NAE      -0.456000
      8 C3          18.0650     0.5600    33.4800 c5         1 NAE       0.124300
      9 O3          18.8130    -0.2710    34.3810 oh         1 NAE      -0.712000
     10 C2          17.5690    -0.2930    32.2730 c5         1 NAE       0.084300
     11 O2          18.5450    -1.2930    31.9070 oh         1 NAE      -0.719000
     12 C1          16.2080    -0.8970    32.8030 c5         1 NAE       0.308300
     13 N9A         15.0640    -0.8270    31.8820 na         1 NAE      -0.290300
     14 C8A         15.1560    -0.9170    30.4870 cc         1 NAE       0.423700
     15 N7A         13.9380    -0.9010    29.9090 nd         1 NAE      -0.605100
     16 C5A         13.0650    -0.8340    31.0000 ca         1 NAE      -0.093600
     17 C6A         11.6530    -0.8160    31.0200 ca         1 NAE       0.440900
     18 N6A         10.8970    -0.8740    29.8910 nv         1 NAE      -1.073900
     19 N1A         10.9750    -0.7390    32.1750 nb         1 NAE      -0.304000
     20 C2A         11.7240    -0.6910    33.3020 ca         1 NAE       0.169900
     21 N3A         13.0760    -0.7140    33.3770 nb         1 NAE      -0.202000
     22 C4A         13.7310    -0.7840    32.2000 ca         1 NAE       0.143500
     23 OPP         16.6370     5.1220    31.6430 os         1 NAE      -0.768800
     24 PN          15.3960     5.7360    32.3820 p5         1 NAE       1.524800
     25 O1N         14.9920     6.9540    31.6250 o          1 NAE      -0.844000
     26 O2N         15.6360     6.0700    33.8140 o          1 NAE      -0.844000
     27 O5B         14.3060     4.5540    32.1760 os         1 NAE      -0.641400
     28 C5B         13.0990     4.7110    31.3830 c3         1 NAE       0.223600
     29 C4B         13.1080     3.9230    30.0170 c5         1 NAE       0.142300
     30 O4B         13.7790     4.6910    28.9720 os         1 NAE      -0.468000
     31 C3B         13.7840     2.5040    30.0110 c5         1 NAE       0.149300
     32 O3B         13.2400     1.6270    29.0070 oh         1 NAE      -0.757000
     33 C2B         15.2240     2.9690    29.6810 c5         1 NAE       0.102300
     34 O2B         16.2330     1.9610    29.4780 oh         1 NAE      -0.769000
     35 C1B         14.9550     3.9620    28.5210 c5         1 NAE       0.260300
     36 N1N         16.0680     4.8770    28.2080 na         1 NAE       0.040300
     37 C2N         16.0960     6.2210    28.6160 ca         1 NAE       0.010000
     38 C3N         17.2010     7.0860    28.4070 ca         1 NAE      -0.156600
     39 C7N         17.0920     8.5160    28.8970 c          1 NAE       0.602700
     40 O7N         17.6410     9.4600    28.3610 o          1 NAE      -0.662100
     41 N7N         16.2840     8.7760    29.9420 nt         1 NAE      -0.580000
     42 C4N         18.3400     6.5740    27.7230 ca         1 NAE       0.082700
     43 C5N         18.3090     5.2380    27.2850 ca         1 NAE      -0.145000
     44 C6N         17.1910     4.4240    27.5160 ca         1 NAE       0.019700
     45 C4P         19.6280     7.3600    27.4610 c3         1 NAE      -0.182100
     46 C3P         20.5500     7.3300    28.6830 c          1 NAE       0.588100
     47 OP          21.0980     6.2960    29.0420 o          1 NAE      -0.534100
     48 C2P         20.7870     8.6440    29.4200 c3         1 NAE      -0.206100
     49 H5'1        14.9540     2.2850    33.8030 h1         1 NAE       0.036200
     50 H5'2        15.7840     1.9090    32.2910 h1         1 NAE       0.036200
     51 H4          16.8210     1.3310    35.1270 h1         1 NAE       0.118700
     52 H3          18.6770     1.4120    33.1510 h1         1 NAE       0.094700
     53 HO'3        19.0520    -1.0510    33.8200 ho         1 NAE       0.509000
     54 H2          17.3720     0.3690    31.4190 h1         1 NAE       0.067700
     55 HO'2        19.1240    -0.9060    31.2050 ho         1 NAE       0.516000
     56 H1          16.3390    -1.9630    33.0280 h2         1 NAE       0.115700
     57 H8A         16.1050    -0.9900    29.9680 h5         1 NAE       0.097800
     58 H6A1         9.9250    -0.5830    29.9520 hn         1 NAE       0.503000
     59 H6A2        11.3670    -0.7160    29.0040 hn         1 NAE       0.503000
     60 H2A         11.1850    -0.6310    34.2460 h5         1 NAE       0.042100
     61 H5A1        12.2490     4.3330    31.9660 h1         1 NAE       0.055200
     62 H5A2        12.8780     5.7660    31.1760 h1         1 NAE       0.055200
     63 H4B         12.0550     3.8240    29.7220 h1         1 NAE       0.080700
     64 H3B         13.7250     2.0410    31.0070 h1         1 NAE       0.086700
     65 HOA3        13.5380     0.7060    29.2630 ho         1 NAE       0.552000
     66 H2B         15.5420     3.5580    30.5190 h1         1 NAE       0.104700
     67 HOB2        16.9890     2.2580    30.0970 ho         1 NAE       0.596000
     68 H1B         14.7210     3.4160    27.5990 h2         1 NAE       0.093700
     69 H2N         15.1890     6.5930    29.0930 h4         1 NAE       0.217000
     70 H7N1        15.8360     8.0270    30.4670 hn         1 NAE       0.365500
     71 H7N2        16.1930     9.7270    30.2580 hn         1 NAE       0.365500
     72 H5N         19.1650     4.8130    26.7650 ha         1 NAE       0.155000
     73 H6N         17.1810     3.3850    27.1800 h4         1 NAE       0.180000
     74 H4P1        20.1760     6.8930    26.6340 hc         1 NAE       0.095200
     75 H4P2        19.4230     8.3890    27.1610 hc         1 NAE       0.095200
     76 H2P1        21.5770     8.5630    30.1740 hc         1 NAE       0.087033
     77 H2P2        20.9850     9.4410    28.6950 hc         1 NAE       0.087033
     78 H2P3        19.8460     8.9630    29.8770 hc         1 NAE       0.087033
@<TRIPOS>BOND
     1     1     2 1   
     2     1     3 1   
     3     1     4 1   
     4     1    23 1   
     5     4     5 1   
     6     5     6 1   
     7     5    49 1   
     8     5    50 1   
     9     6     7 1   
    10     6     8 1   
    11     6    51 1   
    12     7    12 1   
    13     8     9 1   
    14     8    10 1   
    15     8    52 1   
    16     9    53 1   
    17    10    11 1   
    18    10    12 1   
    19    10    54 1   
    20    11    55 1   
    21    12    13 1   
    22    12    56 1   
    23    13    14 1   
    24    13    22 1   
    25    14    15 2   
    26    14    57 1   
    27    15    16 1   
    28    16    17 ar  
    29    16    22 ar  
    30    17    18 1   
    31    17    19 ar  
    32    18    58 1   
    33    18    59 1   
    34    19    20 ar  
    35    20    21 ar  
    36    20    60 1   
    37    21    22 ar  
    38    23    24 1   
    39    24    25 1   
    40    24    26 1   
    41    24    27 1   
    42    27    28 1   
    43    28    29 1   
    44    28    61 1   
    45    28    62 1   
    46    29    30 1   
    47    29    31 1   
    48    29    63 1   
    49    30    35 1   
    50    31    32 1   
    51    31    33 1   
    52    31    64 1   
    53    32    65 1   
    54    33    34 1   
    55    33    35 1   
    56    33    66 1   
    57    34    67 1   
    58    35    36 1   
    59    35    68 1   
    60    36    37 1   
    61    36    44 2   
    62    37    38 ar  
    63    37    69 1   
    64    38    39 1   
    65    38    42 ar  
    66    39    40 2   
    67    39    41 1   
    68    41    70 1   
    69    41    71 1   
    70    42    43 ar  
    71    42    45 1   
    72    43    44 ar  
    73    43    72 1   
    74    44    73 1   
    75    45    46 1   
    76    45    74 1   
    77    45    75 1   
    78    46    47 2   
    79    46    48 1   
    80    48    76 1   
    81    48    77 1   
    82    48    78 1   
@<TRIPOS>SUBSTRUCTURE
     1 NAE         1 TEMP              0 ****  ****    0 ROOT
