@<TRIPOS>MOLECULE
NAE
   78    82     1     0     0
SMALL
abcg2


@<TRIPOS>ATOM
      1 PA          18.0510     4.2530    31.7590 p5         1 NAE       1.526800
      2 O1A         18.0550     3.2860    30.6100 o          1 NAE      -0.856500
      3 O2A         19.2910     4.9820    32.1280 o          1 NAE      -0.856500
      4 O5          17.5390     3.4940    33.0930 os         1 NAE      -0.595400
      5 C5          16.4690     2.5490    33.0280 c3         1 NAE       0.201600
      6 C4          16.7720     1.3700    33.9410 c5         1 NAE       0.151300
      7 O4          15.6150     0.5020    33.9440 os         1 NAE      -0.456000
      8 C3          17.9320     0.4950    33.4950 c5         1 NAE       0.124300
      9 O3          18.4570    -0.1860    34.6260 oh         1 NAE      -0.712000
     10 C2          17.2520    -0.5000    32.5400 c5         1 NAE       0.084300
     11 O2          17.8800    -1.7680    32.5010 oh         1 NAE      -0.719000
     12 C1          15.8480    -0.6470    33.1430 c5         1 NAE       0.308300
     13 N9A         14.7970    -0.7850    32.1510 na         1 NAE      -0.290300
     14 C8A         14.6560    -0.0800    30.9800 cc         1 NAE       0.423700
     15 N7A         13.5100    -0.2970    30.3830 nd         1 NAE      -0.605100
     16 C5A         12.8440    -1.1940    31.2030 ca         1 NAE      -0.093600
     17 C6A         11.5850    -1.8200    31.1200 ca         1 NAE       0.440900
     18 N6A         10.7400    -1.6260    30.0960 nv         1 NAE      -1.073900
     19 N1A         11.2340    -2.6590    32.1130 nb         1 NAE      -0.304000
     20 C2A         12.0840    -2.8590    33.1260 ca         1 NAE       0.169900
     21 N3A         13.2930    -2.3290    33.3070 nb         1 NAE      -0.202000
     22 C4A         13.6280    -1.5040    32.3110 ca         1 NAE       0.143500
     23 OPP         16.8750     5.3320    31.4190 os         1 NAE      -0.768800
     24 PN          15.6890     6.1230    32.2030 p5         1 NAE       1.524800
     25 O1N         15.4020     7.3580    31.4060 o          1 NAE      -0.844000
     26 O2N         16.0020     6.2150    33.6530 o          1 NAE      -0.844000
     27 O5B         14.4620     5.0790    32.0070 os         1 NAE      -0.641400
     28 C5B         13.2700     5.3330    31.2560 c3         1 NAE       0.223600
     29 C4B         13.1580     4.5140    29.9790 c5         1 NAE       0.142300
     30 O4B         13.8630     5.1610    28.8640 os         1 NAE      -0.468000
     31 C3B         13.7310     3.0990    30.0480 c5         1 NAE       0.149300
     32 O3B         13.0120     2.2480    29.1710 oh         1 NAE      -0.757000
     33 C2B         15.1610     3.3690    29.5780 c5         1 NAE       0.102300
     34 O2B         15.9570     2.2650    29.2470 oh         1 NAE      -0.769000
     35 C1B         14.9050     4.3520    28.4300 c5         1 NAE       0.260300
     36 N1N         16.1160     5.1860    28.1550 na         1 NAE       0.040300
     37 C2N         16.1680     6.4820    28.4910 ca         1 NAE       0.010000
     38 C3N         17.3000     7.2390    28.2470 ca         1 NAE      -0.156600
     39 C7N         17.2440     8.7240    28.5240 c          1 NAE       0.602700
     40 O7N         17.7020     9.5210    27.7030 o          1 NAE      -0.662100
     41 N7N         16.6660     9.0790    29.6720 nt         1 NAE      -0.580000
     42 C4N         18.4280     6.6210    27.6860 ca         1 NAE       0.082700
     43 C5N         18.3330     5.2640    27.3670 ca         1 NAE      -0.145000
     44 C6N         17.1720     4.5710    27.5880 ca         1 NAE       0.019700
     45 C4P         19.7320     7.3180    27.4340 c3         1 NAE      -0.182100
     46 C3P         20.7220     7.2490    28.6030 c          1 NAE       0.588100
     47 OP          21.8890     6.9990    28.3810 o          1 NAE      -0.534100
     48 C2P         20.2090     7.5350    29.9820 c3         1 NAE      -0.206100
     49 H5'1        15.5440     3.0250    33.3520 h1         1 NAE       0.036200
     50 H5'2        16.3400     2.2050    32.0040 h1         1 NAE       0.036200
     51 H4          16.9290     1.7200    34.9620 h1         1 NAE       0.118700
     52 H3          18.7090     1.0740    32.9900 h1         1 NAE       0.094700
     53 HO'3        18.7960    -1.0370    34.3090 ho         1 NAE       0.509000
     54 H2          17.2110    -0.0690    31.5410 h1         1 NAE       0.067700
     55 HO'2        18.5440    -1.7680    31.7990 ho         1 NAE       0.516000
     56 H1          15.7980    -1.5400    33.7660 h2         1 NAE       0.115700
     57 H8A         15.4090     0.5900    30.5970 h5         1 NAE       0.097800
     58 H6A1         9.8250    -2.0460    30.1190 hn         1 NAE       0.503000
     59 H6A2        10.9490    -0.9520    29.3800 hn         1 NAE       0.503000
     60 H2A         11.7420    -3.5420    33.8960 h5         1 NAE       0.042100
     61 H5A1        12.4330     5.0600    31.9010 h1         1 NAE       0.055200
     62 H5A2        13.1970     6.3920    31.0110 h1         1 NAE       0.055200
     63 H4B         12.1060     4.4850    29.6930 h1         1 NAE       0.080700
     64 H3B         13.7160     2.7140    31.0690 h1         1 NAE       0.086700
     65 HOA3        13.1350     1.3210    29.4640 ho         1 NAE       0.552000
     66 H2B         15.6450     3.9420    30.3590 h1         1 NAE       0.104700
     67 HOB2        16.8240     2.4520    29.6840 ho         1 NAE       0.596000
     68 H1B         14.6780     3.8460    27.4890 h2         1 NAE       0.093700
     69 H2N         15.2800     6.8840    28.9480 h4         1 NAE       0.217000
     70 H7N1        16.2770     8.4030    30.3460 hn         1 NAE       0.365500
     71 H7N2        16.5760    10.0650    29.8660 hn         1 NAE       0.365500
     72 H5N         19.1740     4.7470    26.9270 ha         1 NAE       0.155000
     73 H6N         17.0450     3.5300    27.3330 h4         1 NAE       0.180000
     74 H4P1        20.2230     6.8820    26.5670 hc         1 NAE       0.095200
     75 H4P2        19.5540     8.3780    27.2470 hc         1 NAE       0.095200
     76 H2P1        21.0430     7.7120    30.6570 hc         1 NAE       0.087033
     77 H2P2        19.5360     8.3940    29.9820 hc         1 NAE       0.087033
     78 H2P3        19.6420     6.6720    30.3480 hc         1 NAE       0.087033
@<TRIPOS>BOND
     1     1     2 1   
     2     1     3 1   
     3     1     4 1   
     4     1    23 1   
     5     4     5 1   
     6     5     6 1   
     7     5    49 1   
     8     5    50 1   
     9     6     7 1   
    10     6     8 1   
    11     6    51 1   
    12     7    12 1   
    13     8     9 1   
    14     8    10 1   
    15     8    52 1   
    16     9    53 1   
    17    10    11 1   
    18    10    12 1   
    19    10    54 1   
    20    11    55 1   
    21    12    13 1   
    22    12    56 1   
    23    13    14 1   
    24    13    22 1   
    25    14    15 2   
    26    14    57 1   
    27    15    16 1   
    28    16    17 ar  
    29    16    22 ar  
    30    17    18 1   
    31    17    19 ar  
    32    18    58 1   
    33    18    59 1   
    34    19    20 ar  
    35    20    21 ar  
    36    20    60 1   
    37    21    22 ar  
    38    23    24 1   
    39    24    25 1   
    40    24    26 1   
    41    24    27 1   
    42    27    28 1   
    43    28    29 1   
    44    28    61 1   
    45    28    62 1   
    46    29    30 1   
    47    29    31 1   
    48    29    63 1   
    49    30    35 1   
    50    31    32 1   
    51    31    33 1   
    52    31    64 1   
    53    32    65 1   
    54    33    34 1   
    55    33    35 1   
    56    33    66 1   
    57    34    67 1   
    58    35    36 1   
    59    35    68 1   
    60    36    37 1   
    61    36    44 2   
    62    37    38 ar  
    63    37    69 1   
    64    38    39 1   
    65    38    42 ar  
    66    39    40 2   
    67    39    41 1   
    68    41    70 1   
    69    41    71 1   
    70    42    43 ar  
    71    42    45 1   
    72    43    44 ar  
    73    43    72 1   
    74    44    73 1   
    75    45    46 1   
    76    45    74 1   
    77    45    75 1   
    78    46    47 2   
    79    46    48 1   
    80    48    76 1   
    81    48    77 1   
    82    48    78 1   
@<TRIPOS>SUBSTRUCTURE
     1 NAE         1 TEMP              0 ****  ****    0 ROOT
