@<TRIPOS>MOLECULE
NAF
   32    32     1     0     0
SMALL
No Charge or Current Charge


@<TRIPOS>ATOM
      1 C1           1.9930    -0.3280    -0.0290 ca         1 NAF       0.114000
      2 C2           0.7040     0.1630     0.2630 ca         1 NAF      -0.068000
      3 C3          -0.4210    -0.6930     0.3230 ca         1 NAF      -0.149300
      4 C4          -0.2320    -2.0700     0.0660 ca         1 NAF      -0.034000
      5 C5           1.0470    -2.5710    -0.2230 ca         1 NAF      -0.080000
      6 C6           2.1550    -1.7100    -0.2700 ca         1 NAF      -0.072000
      7 C7          -1.8190    -0.1180     0.6190 c3         1 NAF       0.410300
      8 O1          -1.7170     0.8080     1.6840 oh         1 NAF      -0.629500
      9 O2          -2.6680    -1.1260     1.1450 oh         1 NAF      -0.629500
     10 C8          -2.4580     0.5530    -0.6620 c3         1 NAF       0.290000
     11 F1          -2.5770    -0.3410    -1.6730 f          1 NAF      -0.097333
     12 F2          -3.6960     1.0400    -0.4020 f          1 NAF      -0.097333
     13 F3          -1.7030     1.5820    -1.1160 f          1 NAF      -0.097333
     14 N1           3.1590     0.6670    -0.0800 n4         1 NAF      -0.539000
     15 CM1          4.5030    -0.0160    -0.3990 c3         1 NAF       0.081233
     16 CM2          3.3210     1.3570     1.2850 c3         1 NAF       0.081233
     17 CM3          2.9110     1.7090    -1.1830 c3         1 NAF       0.081233
     18 H2           0.5770     1.2280     0.4370 ha         1 NAF       0.145000
     19 H4          -1.0720    -2.7610     0.0830 ha         1 NAF       0.147000
     20 H5           1.1790    -3.6330    -0.4170 ha         1 NAF       0.154000
     21 H6           3.1260    -2.1380    -0.5000 ha         1 NAF       0.140000
     22 HO1         -1.0960     0.3940     2.3180 ho         1 NAF       0.483500
     23 HO2         -3.5720    -0.7470     1.1360 ho         1 NAF       0.483500
     24 HM11         4.7240    -0.7570     0.3720 hx         1 NAF       0.098144
     25 HM12         4.4380    -0.5040    -1.3740 hx         1 NAF       0.098144
     26 HM13         5.2950     0.7360    -0.4200 hx         1 NAF       0.098144
     27 HM21         4.1640     2.0500     1.2440 hx         1 NAF       0.098144
     28 HM22         2.4090     1.9050     1.5280 hx         1 NAF       0.098144
     29 HM23         3.5060     0.5990     2.0500 hx         1 NAF       0.098144
     30 HM31         2.8120     1.1980    -2.1430 hx         1 NAF       0.098144
     31 HM32         1.9930     2.2590    -0.9660 hx         1 NAF       0.098144
     32 HM33         3.7520     2.4050    -1.2220 hx         1 NAF       0.098144
@<TRIPOS>BOND
     1     1     2 ar  
     2     1     6 ar  
     3     1    14 1   
     4     2     3 ar  
     5     2    18 1   
     6     3     4 ar  
     7     3     7 1   
     8     4     5 ar  
     9     4    19 1   
    10     5     6 ar  
    11     5    20 1   
    12     6    21 1   
    13     7     8 1   
    14     7     9 1   
    15     7    10 1   
    16     8    22 1   
    17     9    23 1   
    18    10    11 1   
    19    10    12 1   
    20    10    13 1   
    21    14    15 1   
    22    14    16 1   
    23    14    17 1   
    24    15    24 1   
    25    15    25 1   
    26    15    26 1   
    27    16    27 1   
    28    16    28 1   
    29    16    29 1   
    30    17    30 1   
    31    17    31 1   
    32    17    32 1   
@<TRIPOS>SUBSTRUCTURE
     1 NAF         1 TEMP              0 ****  ****    0 ROOT
