@<TRIPOS>MOLECULE
NAF
   32    32     1     0     0
SMALL
abcg2


@<TRIPOS>ATOM
      1 C1           1.9530    -0.3100    -0.0390 ca         1 NAF       0.114000
      2 C2           0.7090     0.2130     0.2800 ca         1 NAF      -0.068000
      3 C3          -0.4060    -0.6120     0.3340 ca         1 NAF      -0.149300
      4 C4          -0.2600    -1.9680     0.0640 ca         1 NAF      -0.034000
      5 C5           0.9860    -2.4800    -0.2500 ca         1 NAF      -0.080000
      6 C6           2.1030    -1.6590    -0.3060 ca         1 NAF      -0.072000
      7 C7          -1.7600     0.0000     0.6910 c3         1 NAF       0.410300
      8 O1          -1.6400     1.0770     1.5380 oh         1 NAF      -0.629500
      9 O2          -2.6350    -0.9100     1.2700 oh         1 NAF      -0.629500
     10 C8          -2.4050     0.5790    -0.5900 c3         1 NAF       0.290000
     11 F1          -2.6250    -0.3990    -1.4770 f          1 NAF      -0.097333
     12 F2          -3.5740     1.1600    -0.3310 f          1 NAF      -0.097333
     13 F3          -1.6220     1.4850    -1.1760 f          1 NAF      -0.097333
     14 N1           3.1090     0.6200    -0.0790 n4         1 NAF      -0.539000
     15 CM1          4.3860    -0.0660    -0.4330 c3         1 NAF       0.081233
     16 CM2          3.2920     1.2520     1.2680 c3         1 NAF       0.081233
     17 CM3          2.8650     1.6850    -1.1050 c3         1 NAF       0.081233
     18 H2           0.5930     1.2660     0.5000 ha         1 NAF       0.145000
     19 H4          -1.0950    -2.6540     0.0990 ha         1 NAF       0.147000
     20 H5           1.0990    -3.5360    -0.4530 ha         1 NAF       0.154000
     21 H6           3.0550    -2.1000    -0.5540 ha         1 NAF       0.140000
     22 HO1         -1.1650     0.8110     2.3360 ho         1 NAF       0.483500
     23 HO2         -2.7770    -1.6860     0.7170 ho         1 NAF       0.483500
     24 HM11         4.6170    -0.8230     0.3110 hx         1 NAF       0.098144
     25 HM12         4.3070    -0.5090    -1.4210 hx         1 NAF       0.098144
     26 HM13         5.1730     0.6810    -0.4400 hx         1 NAF       0.098144
     27 HM21         4.1500     1.9160     1.2250 hx         1 NAF       0.098144
     28 HM22         2.4080     1.8230     1.5320 hx         1 NAF       0.098144
     29 HM23         3.4600     0.4680     2.0020 hx         1 NAF       0.098144
     30 HM31         2.7360     1.2150    -2.0750 hx         1 NAF       0.098144
     31 HM32         1.9770     2.2510    -0.8450 hx         1 NAF       0.098144
     32 HM33         3.7230     2.3500    -1.1210 hx         1 NAF       0.098144
@<TRIPOS>BOND
     1     1     2 ar  
     2     1     6 ar  
     3     1    14 1   
     4     2     3 ar  
     5     2    18 1   
     6     3     4 ar  
     7     3     7 1   
     8     4     5 ar  
     9     4    19 1   
    10     5     6 ar  
    11     5    20 1   
    12     6    21 1   
    13     7     8 1   
    14     7     9 1   
    15     7    10 1   
    16     8    22 1   
    17     9    23 1   
    18    10    11 1   
    19    10    12 1   
    20    10    13 1   
    21    14    15 1   
    22    14    16 1   
    23    14    17 1   
    24    15    24 1   
    25    15    25 1   
    26    15    26 1   
    27    16    27 1   
    28    16    28 1   
    29    16    29 1   
    30    17    30 1   
    31    17    31 1   
    32    17    32 1   
@<TRIPOS>SUBSTRUCTURE
     1 NAF         1 TEMP              0 ****  ****    0 ROOT
