@<TRIPOS>MOLECULE
NAG
   30    30     1     0     0
SMALL
bcc


@<TRIPOS>ATOM
      1 C1           7.2920    28.0650    26.6200 c6         1 NAG       0.337900
      2 C2           6.9350    29.1740    27.6150 c6         1 NAG       0.084700
      3 C3           7.7090    28.9710    28.9140 c6         1 NAG       0.139100
      4 C4           7.5040    27.5520    29.4330 c6         1 NAG       0.080100
      5 C5           7.8610    26.5510    28.3300 c6         1 NAG       0.135100
      6 C6           7.6870    25.1040    28.7360 c3         1 NAG       0.142400
      7 C7           6.2720    31.3780    26.7280 c          1 NAG       0.683100
      8 C8           6.8020    32.6670    26.1500 c3         1 NAG      -0.179100
      9 N2           7.2120    30.4710    27.0540 ns         1 NAG      -0.561900
     10 O1           6.4920    28.1980    25.5080 oh         1 NAG      -0.554800
     11 O3           7.2720    29.9350    29.8350 oh         1 NAG      -0.577800
     12 O4           8.3300    27.3970    30.5650 oh         1 NAG      -0.607800
     13 O5           7.0550    26.8050    27.1970 os         1 NAG      -0.423600
     14 O6           6.3680    24.8900    29.1810 oh         1 NAG      -0.586800
     15 O7           5.0740    31.1950    26.8880 o          1 NAG      -0.590100
     16 H1           8.3640    28.1450    26.3620 h2         1 NAG       0.004700
     17 H2           5.8640    29.1140    27.8230 h1         1 NAG       0.126700
     18 H3           8.7840    29.0940    28.6970 h1         1 NAG       0.029700
     19 H4           6.4450    27.4340    29.6960 h1         1 NAG       0.082700
     20 H5           8.9270    26.6800    28.0750 h1         1 NAG       0.041700
     21 H61          7.9370    24.4690    27.8750 h1         1 NAG       0.031200
     22 H62          8.4270    24.8800    29.5130 h1         1 NAG       0.031200
     23 H81          6.3520    32.8350    25.1720 hc         1 NAG       0.058367
     24 H82          6.5020    33.4970    26.7900 hc         1 NAG       0.058367
     25 H83          7.8840    32.6910    26.0400 hc         1 NAG       0.058367
     26 HN2          8.1790    30.7040    26.8910 hn         1 NAG       0.304500
     27 HO1          6.8770    27.7070    24.7750 ho         1 NAG       0.416000
     28 HO3          7.7850    29.8260    30.6430 ho         1 NAG       0.418000
     29 HO4          7.9500    26.7260    31.1390 ho         1 NAG       0.417000
     30 HO6          6.3080    23.9930    29.5230 ho         1 NAG       0.405000
@<TRIPOS>BOND
     1     1     2 1   
     2     1    10 1   
     3     1    13 1   
     4     1    16 1   
     5     2     3 1   
     6     2     9 1   
     7     2    17 1   
     8     3     4 1   
     9     3    11 1   
    10     3    18 1   
    11     4     5 1   
    12     4    12 1   
    13     4    19 1   
    14     5     6 1   
    15     5    13 1   
    16     5    20 1   
    17     6    14 1   
    18     6    21 1   
    19     6    22 1   
    20     7     8 1   
    21     7     9 1   
    22     7    15 2   
    23     8    23 1   
    24     8    24 1   
    25     8    25 1   
    26     9    26 1   
    27    10    27 1   
    28    11    28 1   
    29    12    29 1   
    30    14    30 1   
@<TRIPOS>SUBSTRUCTURE
     1 NAG         1 TEMP              0 ****  ****    0 ROOT
