@<TRIPOS>MOLECULE
NAG
   30    30     1     0     0
SMALL
No Charge or Current Charge


@<TRIPOS>ATOM
      1 C1           7.3960    28.1640    26.6280 c6         1 NAG       0.384300
      2 C2           6.9550    29.2630    27.6500 c6         1 NAG       0.084700
      3 C3           7.7540    29.0300    28.9670 c6         1 NAG       0.162300
      4 C4           7.5560    27.5770    29.4910 c6         1 NAG       0.103300
      5 C5           7.9470    26.5700    28.3600 c6         1 NAG       0.158300
      6 C6           7.6980    25.0740    28.7490 c3         1 NAG       0.165600
      7 C7           6.2330    31.3910    26.4530 c          1 NAG       0.616100
      8 C8           6.7280    32.7580    25.9980 c3         1 NAG      -0.179100
      9 N2           7.1630    30.6410    27.1350 ns         1 NAG      -0.494900
     10 O1           6.6260    28.1930    25.4460 oh         1 NAG      -0.617000
     11 O3           7.3720    29.9620    29.9890 oh         1 NAG      -0.640000
     12 O4           8.3330    27.3810    30.6970 oh         1 NAG      -0.730000
     13 O5           7.1720    26.8590    27.1680 os         1 NAG      -0.470000
     14 O6           6.3170    24.7730    29.0370 oh         1 NAG      -0.709000
     15 O7           5.0950    31.0000    26.2410 o          1 NAG      -0.590100
     16 H1           8.4610    28.2810    26.3790 h2         1 NAG       0.004700
     17 H2           5.8860    29.1190    27.8630 h1         1 NAG       0.126700
     18 H3           8.8230    29.1640    28.7410 h1         1 NAG       0.029700
     19 H4           6.4840    27.4390    29.7060 h1         1 NAG       0.082700
     20 H5           9.0140    26.6860    28.1200 h1         1 NAG       0.041700
     21 H61          8.0480    24.4520    27.9150 h1         1 NAG       0.031200
     22 H62          8.3280    24.8280    29.6150 h1         1 NAG       0.031200
     23 H81          5.9580    33.3310    25.4680 hc         1 NAG       0.058367
     24 H82          7.1130    33.3060    26.8660 hc         1 NAG       0.058367
     25 H83          7.6280    32.6270    25.3870 hc         1 NAG       0.058367
     26 HN2          8.0650    31.0770    27.2850 hn         1 NAG       0.304500
     27 HO1          6.3550    27.2580    25.3350 ho         1 NAG       0.455000
     28 HO3          7.7230    29.5700    30.8210 ho         1 NAG       0.457000
     29 HO4          7.9770    26.5790    31.1490 ho         1 NAG       0.516000
     30 HO6          6.2450    23.7930    29.1110 ho         1 NAG       0.504000
@<TRIPOS>BOND
     1     1     2 1   
     2     1    10 1   
     3     1    13 1   
     4     1    16 1   
     5     2     3 1   
     6     2     9 1   
     7     2    17 1   
     8     3     4 1   
     9     3    11 1   
    10     3    18 1   
    11     4     5 1   
    12     4    12 1   
    13     4    19 1   
    14     5     6 1   
    15     5    13 1   
    16     5    20 1   
    17     6    14 1   
    18     6    21 1   
    19     6    22 1   
    20     7     8 1   
    21     7     9 1   
    22     7    15 2   
    23     8    23 1   
    24     8    24 1   
    25     8    25 1   
    26     9    26 1   
    27    10    27 1   
    28    11    28 1   
    29    12    29 1   
    30    14    30 1   
@<TRIPOS>SUBSTRUCTURE
     1 NAG         1 TEMP              0 ****  ****    0 ROOT
