@<TRIPOS>MOLECULE
NAI
   71    75     1     0     0
SMALL
No Charge or Current Charge


@<TRIPOS>ATOM
      1 PA          -0.3440    -1.8360     2.9100 p5         1 NAI       1.484800
      2 O1A         -1.8150    -1.8740     2.6530 o          1 NAI      -0.859500
      3 O2A         -0.0140    -2.3060     4.2890 o          1 NAI      -0.859500
      4 O5B          0.2230    -0.3320     2.7530 os         1 NAI      -0.590400
      5 C5B         -0.3150     0.6420     1.8390 c3         1 NAI       0.225600
      6 C4B         -0.1740     0.2130     0.3400 c5         1 NAI       0.138300
      7 O4B         -1.4460    -0.2840    -0.1570 os         1 NAI      -0.384000
      8 C3B          0.1590     1.4060    -0.6180 c5         1 NAI       0.098300
      9 O3B          0.6070     0.9900    -1.9150 oh         1 NAI      -0.712000
     10 C2B         -1.2470     2.0570    -0.7080 c5         1 NAI       0.061300
     11 O2B         -1.3430     2.9860    -1.8060 oh         1 NAI      -0.704000
     12 C1B         -2.1310     0.7680    -0.8800 c5         1 NAI       0.329300
     13 N9A         -3.5330     0.8200    -0.4620 na         1 NAI      -0.275300
     14 C8A         -4.1190     1.7650     0.3910 cc         1 NAI       0.456700
     15 N7A         -5.4400     1.5400     0.5430 nd         1 NAI      -0.551100
     16 C5A         -5.6670     0.4130    -0.2530 ca         1 NAI      -0.051600
     17 C6A         -6.8670    -0.2910    -0.4930 ca         1 NAI       0.433900
     18 N6A         -8.0590     0.0600     0.0620 nv         1 NAI      -1.081900
     19 N1A         -6.8910    -1.3680    -1.2940 nb         1 NAI      -0.332000
     20 C2A         -5.7080    -1.7240    -1.8500 ca         1 NAI       0.144900
     21 N3A         -4.5140    -1.1070    -1.6790 nb         1 NAI      -0.211000
     22 C4A         -4.5220    -0.0330    -0.8640 ca         1 NAI       0.134500
     23 O3           0.5110    -2.5000     1.7650 os         1 NAI      -0.721800
     24 PN           0.7700    -4.0350     1.9870 p5         1 NAI       1.457800
     25 O1N         -0.4780    -4.8160     2.2400 o          1 NAI      -0.836000
     26 O2N          1.8440    -4.3330     2.9820 o          1 NAI      -0.836000
     27 O5D          1.2970    -4.3930     0.4990 os         1 NAI      -0.580400
     28 C5D          2.6580    -4.1440     0.0880 c3         1 NAI       0.194600
     29 C4D          2.7570    -2.8330    -0.7410 c5         1 NAI       0.165300
     30 O4D          2.7630    -1.6750     0.1200 os         1 NAI      -0.423000
     31 C3D          4.0810    -2.7010    -1.5950 c5         1 NAI       0.096300
     32 O3D          3.8250    -2.5180    -2.9900 oh         1 NAI      -0.726000
     33 C2D          4.7210    -1.3830    -1.0500 c5         1 NAI       0.063300
     34 O2D          5.5220    -0.7250    -2.0690 oh         1 NAI      -0.726000
     35 C1D          3.4210    -0.6380    -0.6060 c5         1 NAI       0.468500
     36 N1N          3.8230     0.5120     0.2660 nh         1 NAI      -0.530200
     37 C2N          3.8370     1.7440    -0.3860 c2         1 NAI       0.134000
     38 C3N          3.5890     2.9130     0.2460 ce         1 NAI      -0.357400
     39 C7N          3.5980     4.1980    -0.5110 c          1 NAI       0.639300
     40 O7N          3.9760     4.2920    -1.6660 o          1 NAI      -0.675100
     41 N7N          3.1180     5.2830     0.1240 nt         1 NAI      -0.619000
     42 C4N          3.2250     2.9300     1.7380 c6         1 NAI       0.053000
     43 C5N          3.2340     1.5330     2.3340 c2         1 NAI      -0.300200
     44 C6N          3.5220     0.4270     1.6300 c2         1 NAI       0.024000
     45 H51A        -1.3700     0.8410     2.0680 h1         1 NAI       0.017200
     46 H52A         0.2240     1.5870     1.9810 h1         1 NAI       0.017200
     47 H4B          0.5860    -0.5680     0.2550 h1         1 NAI       0.088700
     48 H3B          0.8910     2.0900    -0.1680 h1         1 NAI       0.036700
     49 HO3A         0.1950     1.6350    -2.5380 ho         1 NAI       0.501000
     50 H2B         -1.4790     2.5660     0.2380 h1         1 NAI       0.068700
     51 HO2A        -0.9850     3.8540    -1.5010 ho         1 NAI       0.493000
     52 H1B         -2.1510     0.4970    -1.9430 h2         1 NAI       0.098700
     53 H8A         -3.5580     2.5670     0.8570 h5         1 NAI       0.129800
     54 H61A        -8.0310     0.7240     0.8330 hn         1 NAI       0.491000
     55 H62A        -8.8040    -0.6320     0.0800 hn         1 NAI       0.491000
     56 H2A         -5.7170    -2.5950    -2.5030 h5         1 NAI       0.015100
     57 H51N         3.0010    -4.9750    -0.5420 h1         1 NAI       0.040700
     58 H52N         3.3440    -4.0810     0.9430 h1         1 NAI       0.040700
     59 H4D          1.8780    -2.7730    -1.3970 h1         1 NAI       0.077700
     60 H3D          4.7550    -3.5540    -1.4360 h1         1 NAI       0.061700
     61 HO3N         4.4680    -1.7980    -3.2250 ho         1 NAI       0.499000
     62 H2D          5.3280    -1.6080    -0.1590 h1         1 NAI       0.112700
     63 HO2N         6.0690    -0.0410    -1.6130 ho         1 NAI       0.505000
     64 H1D          2.8160    -0.3260    -1.4670 h2         1 NAI       0.055700
     65 H2N          4.0580     1.7110    -1.4570 h4         1 NAI       0.199000
     66 H71N         3.0960     6.1680    -0.3590 hn         1 NAI       0.298500
     67 H72N         2.7960     5.2040     1.0750 hn         1 NAI       0.298500
     68 H4N          2.2270     3.3680     1.8780 hc         1 NAI       0.011700
     69 H42N         3.9350     3.5610     2.2890 hc         1 NAI       0.011700
     70 H5N          2.9860     1.4590     3.3940 ha         1 NAI       0.216000
     71 H6N          3.5170    -0.5700     2.0850 h4         1 NAI       0.261000
@<TRIPOS>BOND
     1     1     2 1   
     2     1     3 1   
     3     1     4 1   
     4     1    23 1   
     5     4     5 1   
     6     5     6 1   
     7     5    45 1   
     8     5    46 1   
     9     6     7 1   
    10     6     8 1   
    11     6    47 1   
    12     7    12 1   
    13     8     9 1   
    14     8    10 1   
    15     8    48 1   
    16     9    49 1   
    17    10    11 1   
    18    10    12 1   
    19    10    50 1   
    20    11    51 1   
    21    12    13 1   
    22    12    52 1   
    23    13    14 1   
    24    13    22 1   
    25    14    15 2   
    26    14    53 1   
    27    15    16 1   
    28    16    17 ar  
    29    16    22 ar  
    30    17    18 1   
    31    17    19 ar  
    32    18    54 1   
    33    18    55 1   
    34    19    20 ar  
    35    20    21 ar  
    36    20    56 1   
    37    21    22 ar  
    38    23    24 1   
    39    24    25 1   
    40    24    26 1   
    41    24    27 1   
    42    27    28 1   
    43    28    29 1   
    44    28    57 1   
    45    28    58 1   
    46    29    30 1   
    47    29    31 1   
    48    29    59 1   
    49    30    35 1   
    50    31    32 1   
    51    31    33 1   
    52    31    60 1   
    53    32    61 1   
    54    33    34 1   
    55    33    35 1   
    56    33    62 1   
    57    34    63 1   
    58    35    36 1   
    59    35    64 1   
    60    36    37 1   
    61    36    44 1   
    62    37    38 2   
    63    37    65 1   
    64    38    39 1   
    65    38    42 1   
    66    39    40 2   
    67    39    41 1   
    68    41    66 1   
    69    41    67 1   
    70    42    43 1   
    71    42    68 1   
    72    42    69 1   
    73    43    44 2   
    74    43    70 1   
    75    44    71 1   
@<TRIPOS>SUBSTRUCTURE
     1 NAI         1 TEMP              0 ****  ****    0 ROOT
