@<TRIPOS>MOLECULE
NAI
   71    75     1     0     0
SMALL
bcc


@<TRIPOS>ATOM
      1 PA           0.1130    -0.2930     2.2920 p5         1 NAI       1.484800
      2 O1A         -1.1060    -0.5070     3.1390 o          1 NAI      -0.859500
      3 O2A          1.4610    -0.7480     2.7650 o          1 NAI      -0.859500
      4 O5B          0.2810     1.3130     1.9780 os         1 NAI      -0.567200
      5 C5B         -0.7880     2.2210     2.0950 c3         1 NAI       0.202400
      6 C4B         -1.3410     2.6390     0.7430 c5         1 NAI       0.115100
      7 O4B         -1.8340     1.5150     0.0130 os         1 NAI      -0.337600
      8 C3B         -2.5250     3.5860     0.9000 c5         1 NAI       0.075100
      9 O3B         -2.6030     4.4160    -0.2310 oh         1 NAI      -0.589800
     10 C2B         -3.6870     2.5910     0.9290 c5         1 NAI       0.038100
     11 O2B         -4.9290     3.1180     0.5720 oh         1 NAI      -0.581800
     12 C1B         -3.2240     1.5790    -0.1170 c5         1 NAI       0.276800
     13 N9A         -3.8010     0.2700     0.0380 na         1 NAI      -0.246000
     14 C8A         -3.6180    -0.6150     1.0680 cc         1 NAI       0.456700
     15 N7A         -4.3320    -1.6940     0.9470 nd         1 NAI      -0.551100
     16 C5A         -5.0070    -1.5300    -0.2330 ca         1 NAI      -0.182200
     17 C6A         -5.9270    -2.3330    -0.9280 ca         1 NAI       0.762200
     18 N6A         -6.3380    -3.5200    -0.4700 nv         1 NAI      -0.971500
     19 N1A         -6.4160    -1.8740    -2.0860 nb         1 NAI      -0.858000
     20 C2A         -6.0160    -0.6840    -2.5290 ca         1 NAI       0.670900
     21 N3A         -5.1650     0.1570    -1.9680 nb         1 NAI      -0.737000
     22 C4A         -4.6870    -0.3160    -0.8180 ca         1 NAI       0.462800
     23 O3          -0.1320    -0.8170     0.7630 os         1 NAI      -0.721800
     24 PN          -0.5770    -2.3080     0.2340 p5         1 NAI       1.457800
     25 O1N         -1.5040    -2.1230    -0.9210 o          1 NAI      -0.836000
     26 O2N         -0.8900    -3.1860     1.4030 o          1 NAI      -0.836000
     27 O5D          0.8420    -2.8040    -0.4460 os         1 NAI      -0.557200
     28 C5D          1.9010    -3.1690     0.4100 c3         1 NAI       0.171400
     29 C4D          3.1750    -3.2900    -0.4000 c5         1 NAI       0.142100
     30 O4D          3.4530    -2.0810    -1.1110 os         1 NAI      -0.376600
     31 C3D          4.3790    -3.5310     0.5030 c5         1 NAI       0.073100
     32 O3D          5.3560    -4.2500    -0.2070 oh         1 NAI      -0.603800
     33 C2D          4.8380    -2.0940     0.7630 c5         1 NAI       0.040100
     34 O2D          6.1830    -1.9630     1.1240 oh         1 NAI      -0.603800
     35 C1D          4.6090    -1.4590    -0.6080 c5         1 NAI       0.445300
     36 N1N          4.4450    -0.0340    -0.6040 nh         1 NAI      -0.530200
     37 C2N          5.3030     0.7680    -1.2880 c2         1 NAI       0.184000
     38 C3N          5.2180     2.1130    -1.3210 ce         1 NAI      -0.357400
     39 C7N          6.2360     2.8280    -2.1090 c          1 NAI       0.706300
     40 O7N          7.1470     2.2580    -2.7120 o          1 NAI      -0.675100
     41 N7N          6.1200     4.1710    -2.1270 nt         1 NAI      -0.686000
     42 C4N          4.1300     2.8550    -0.5790 c6         1 NAI       0.053000
     43 C5N          3.2230     1.8830     0.1180 c2         1 NAI      -0.250200
     44 C6N          3.3930     0.5650     0.0890 c2         1 NAI       0.074000
     45 H51A        -1.5840     1.8150     2.7260 h1         1 NAI       0.017200
     46 H52A        -0.4110     3.1200     2.5910 h1         1 NAI       0.017200
     47 H4B         -0.5430     3.1070     0.1570 h1         1 NAI       0.088700
     48 H3B         -2.4650     4.1740     1.8270 h1         1 NAI       0.036700
     49 HO3A        -3.5030     4.7560    -0.2870 ho         1 NAI       0.402000
     50 H2B         -3.7200     2.1090     1.9150 h1         1 NAI       0.068700
     51 HO2A        -5.3390     3.5060     1.3520 ho         1 NAI       0.394000
     52 H1B         -3.5210     1.9190    -1.1160 h2         1 NAI       0.098700
     53 H8A         -2.9250    -0.4210     1.8760 h5         1 NAI       0.129800
     54 H61A        -5.8990    -3.9370     0.3320 hn         1 NAI       0.435800
     55 H62A        -6.9300    -4.1000    -1.0380 hn         1 NAI       0.435800
     56 H2A         -6.4470    -0.3690    -3.4730 h5         1 NAI       0.015100
     57 H51N         1.7110    -4.1400     0.8820 h1         1 NAI       0.040700
     58 H52N         2.0300    -2.4380     1.2170 h1         1 NAI       0.040700
     59 H4D          3.0680    -4.1010    -1.1290 h1         1 NAI       0.077700
     60 H3D          4.0950    -4.0470     1.4300 h1         1 NAI       0.061700
     61 HO3N         6.2100    -4.0640     0.2000 ho         1 NAI       0.400000
     62 H2D          4.1730    -1.6330     1.5050 h1         1 NAI       0.112700
     63 HO2N         6.2650    -2.1040     2.0730 ho         1 NAI       0.406000
     64 H1D          5.4760    -1.6630    -1.2480 h2         1 NAI       0.055700
     65 H2N          6.0930     0.2580    -1.8240 h4         1 NAI       0.149000
     66 H71N         6.7710     4.7200    -2.6630 hn         1 NAI       0.298500
     67 H72N         5.3700     4.6640    -1.6760 hn         1 NAI       0.298500
     68 H4N          3.5430     3.4840    -1.2610 hc         1 NAI       0.011700
     69 H42N         4.5570     3.5530     0.1530 hc         1 NAI       0.011700
     70 H5N          2.3760     2.2690     0.6690 ha         1 NAI       0.166000
     71 H6N          2.7190    -0.1000     0.6090 h4         1 NAI       0.211000
@<TRIPOS>BOND
     1     1     2 1   
     2     1     3 1   
     3     1     4 1   
     4     1    23 1   
     5     4     5 1   
     6     5     6 1   
     7     5    45 1   
     8     5    46 1   
     9     6     7 1   
    10     6     8 1   
    11     6    47 1   
    12     7    12 1   
    13     8     9 1   
    14     8    10 1   
    15     8    48 1   
    16     9    49 1   
    17    10    11 1   
    18    10    12 1   
    19    10    50 1   
    20    11    51 1   
    21    12    13 1   
    22    12    52 1   
    23    13    14 1   
    24    13    22 1   
    25    14    15 2   
    26    14    53 1   
    27    15    16 1   
    28    16    17 ar  
    29    16    22 ar  
    30    17    18 1   
    31    17    19 ar  
    32    18    54 1   
    33    18    55 1   
    34    19    20 ar  
    35    20    21 ar  
    36    20    56 1   
    37    21    22 ar  
    38    23    24 1   
    39    24    25 1   
    40    24    26 1   
    41    24    27 1   
    42    27    28 1   
    43    28    29 1   
    44    28    57 1   
    45    28    58 1   
    46    29    30 1   
    47    29    31 1   
    48    29    59 1   
    49    30    35 1   
    50    31    32 1   
    51    31    33 1   
    52    31    60 1   
    53    32    61 1   
    54    33    34 1   
    55    33    35 1   
    56    33    62 1   
    57    34    63 1   
    58    35    36 1   
    59    35    64 1   
    60    36    37 1   
    61    36    44 1   
    62    37    38 2   
    63    37    65 1   
    64    38    39 1   
    65    38    42 1   
    66    39    40 2   
    67    39    41 1   
    68    41    66 1   
    69    41    67 1   
    70    42    43 1   
    71    42    68 1   
    72    42    69 1   
    73    43    44 2   
    74    43    70 1   
    75    44    71 1   
@<TRIPOS>SUBSTRUCTURE
     1 NAI         1 TEMP              0 ****  ****    0 ROOT
