@<TRIPOS>MOLECULE
NAJ
   71    75     1     0     0
SMALL
No Charge or Current Charge


@<TRIPOS>ATOM
      1 PA          -0.1800     1.3600    -1.4470 p5         1 NAJ       1.477800
      2 O1A          0.7860     2.3370    -2.0270 o          1 NAJ      -0.856000
      3 O2A         -1.5790     1.8750    -1.4290 o          1 NAJ      -0.856000
      4 O5B         -0.1130     0.0120    -2.3310 os         1 NAJ      -0.592400
      5 C5B         -1.2070    -0.9240    -2.3980 c3         1 NAJ       0.215600
      6 C4B         -1.4330    -1.6970    -1.0530 c5         1 NAJ       0.150300
      7 O4B         -2.1090    -0.8660    -0.0680 os         1 NAJ      -0.375000
      8 C3B         -2.3950    -2.9230    -1.2270 c5         1 NAJ       0.106300
      9 O3B         -2.3110    -3.8670    -0.1490 oh         1 NAJ      -0.705000
     10 C2B         -3.7690    -2.1860    -1.2090 c5         1 NAJ       0.067300
     11 O2B         -4.8600    -3.1010    -0.9800 oh         1 NAJ      -0.711000
     12 C1B         -3.5160    -1.1890    -0.0250 c5         1 NAJ       0.313300
     13 N9A         -4.3010     0.0420     0.0280 na         1 NAJ      -0.163800
     14 C8A         -4.5030     0.9440    -1.0270 cc         1 NAJ       0.544700
     15 N7A         -5.3410     1.9450    -0.6600 nd         1 NAJ      -0.531100
     16 C5A         -5.6140     1.6170     0.6550 cd         1 NAJ      -0.047600
     17 C6A         -6.4240     2.3560     1.4780 cc         1 NAJ       0.462000
     18 N6A         -7.0930     3.4960     1.1740 nv         1 NAJ      -1.068000
     19 N1A         -6.5720     1.8560     2.7630 na         1 NAJ      -0.364500
     20 C2A         -5.9160     0.6670     3.1590 cc         1 NAJ       0.525400
     21 N3A         -5.1200    -0.0580     2.3520 nd         1 NAJ      -0.615000
     22 C4A         -5.0060     0.4820     1.1050 cd         1 NAJ       0.299000
     23 O3           0.3360     0.7050    -0.1140 os         1 NAJ      -0.728800
     24 PN           0.4240     1.7350     1.0740 p5         1 NAJ       1.464800
     25 O1N          1.5020     2.7580     0.9240 o          1 NAJ      -0.830000
     26 O2N         -0.8870     2.3350     1.4630 o          1 NAJ      -0.830000
     27 O5D          0.8510     0.6690     2.2050 os         1 NAJ      -0.581400
     28 C5D          2.1770     0.1190     2.2190 c3         1 NAJ       0.225600
     29 C4D          2.0820    -1.4400     2.1740 c5         1 NAJ       0.151300
     30 O4D          2.2040    -1.9350     0.8150 os         1 NAJ      -0.406000
     31 C3D          3.2570    -2.1640     2.9040 c5         1 NAJ       0.114300
     32 O3D          3.0120    -3.5630     3.1140 oh         1 NAJ      -0.704000
     33 C2D          4.3900    -1.9650     1.8530 c5         1 NAJ       0.073300
     34 O2D          5.4520    -2.9250     2.0460 oh         1 NAJ      -0.714000
     35 C1D          3.6090    -2.1410     0.4930 c5         1 NAJ       0.279300
     36 N1N          4.0330    -1.2710    -0.6260 na         1 NAJ       0.031300
     37 C2N          5.3900    -1.0620    -0.9270 ca         1 NAJ      -0.041000
     38 C3N          5.8350    -0.1730    -1.9370 ca         1 NAJ      -0.195600
     39 C7N          7.3180     0.0080    -2.1620 c          1 NAJ       0.626700
     40 O7N          8.1520    -0.5850    -1.4990 o          1 NAJ      -0.589100
     41 N7N          7.7290     0.8550    -3.1300 nt         1 NAJ      -0.590000
     42 C4N          4.8690     0.5070    -2.7100 ca         1 NAJ      -0.006000
     43 C5N          3.5080     0.2620    -2.4800 ca         1 NAJ      -0.105000
     44 C6N          3.1120    -0.6330    -1.4700 ca         1 NAJ       0.036700
     45 H51A        -2.1290    -0.4140    -2.7000 h1         1 NAJ       0.022700
     46 H52A        -0.9860    -1.6640    -3.1780 h1         1 NAJ       0.022700
     47 H4B         -0.4550    -2.0070    -0.6610 h1         1 NAJ       0.104700
     48 H3B         -2.2270    -3.4320    -2.1870 h1         1 NAJ       0.059700
     49 HO3A        -3.2390    -4.1840    -0.0230 ho         1 NAJ       0.512000
     50 H2B         -3.9270    -1.6370    -2.1480 h1         1 NAJ       0.070700
     51 HO2A        -5.1860    -3.4160    -1.8600 ho         1 NAJ       0.515000
     52 H1B         -3.7150    -1.7140     0.9170 h2         1 NAJ       0.104700
     53 H8A         -4.0340     0.8250    -1.9970 h5         1 NAJ       0.168800
     54 H61A        -6.8540     3.9240     0.2790 hn         1 NAJ       0.535500
     55 H62A        -7.3140     4.1570     1.9170 hn         1 NAJ       0.535500
     56 H1A         -7.1650     2.3300     3.4240 hn         1 NAJ       0.355000
     57 H2A         -6.0900     0.3460     4.1800 h5         1 NAJ       0.067100
     58 H51N         2.7820     0.4810     1.3770 h1         1 NAJ       0.027700
     59 H52N         2.6830     0.4210     3.1450 h1         1 NAJ       0.027700
     60 H4D          1.1120    -1.7430     2.5910 h1         1 NAJ       0.119700
     61 H3D          3.5010    -1.6720     3.8580 h1         1 NAJ       0.075700
     62 HO3N         3.8630    -3.9980     2.8580 ho         1 NAJ       0.517000
     63 H2D          4.7870    -0.9390     1.9190 h1         1 NAJ       0.074700
     64 HO2N         6.0910    -2.5480     2.7030 ho         1 NAJ       0.531000
     65 H1D          3.7360    -3.1670     0.1280 h2         1 NAJ       0.106700
     66 H2N          6.1130    -1.6220    -0.3300 h4         1 NAJ       0.189000
     67 H71N         7.0610     1.3580    -3.6930 hn         1 NAJ       0.326000
     68 H72N         8.7190     0.9780    -3.2840 hn         1 NAJ       0.326000
     69 H4N          5.1500     1.2030    -3.4990 ha         1 NAJ       0.148000
     70 H5N          2.7530     0.7600    -3.0900 ha         1 NAJ       0.251000
     71 H6N          2.0540    -0.8480    -1.3130 h4         1 NAJ       0.250000
@<TRIPOS>BOND
     1     1     2 1   
     2     1     3 1   
     3     1     4 1   
     4     1    23 1   
     5     4     5 1   
     6     5     6 1   
     7     5    45 1   
     8     5    46 1   
     9     6     7 1   
    10     6     8 1   
    11     6    47 1   
    12     7    12 1   
    13     8     9 1   
    14     8    10 1   
    15     8    48 1   
    16     9    49 1   
    17    10    11 1   
    18    10    12 1   
    19    10    50 1   
    20    11    51 1   
    21    12    13 1   
    22    12    52 1   
    23    13    14 1   
    24    13    22 2   
    25    14    15 2   
    26    14    53 1   
    27    15    16 1   
    28    16    17 2   
    29    16    22 1   
    30    17    18 1   
    31    17    19 1   
    32    18    54 1   
    33    18    55 1   
    34    19    20 1   
    35    19    56 1   
    36    20    21 2   
    37    20    57 1   
    38    21    22 1   
    39    23    24 1   
    40    24    25 1   
    41    24    26 1   
    42    24    27 1   
    43    27    28 1   
    44    28    29 1   
    45    28    58 1   
    46    28    59 1   
    47    29    30 1   
    48    29    31 1   
    49    29    60 1   
    50    30    35 1   
    51    31    32 1   
    52    31    33 1   
    53    31    61 1   
    54    32    62 1   
    55    33    34 1   
    56    33    35 1   
    57    33    63 1   
    58    34    64 1   
    59    35    36 1   
    60    35    65 1   
    61    36    37 1   
    62    36    44 2   
    63    37    38 ar  
    64    37    66 1   
    65    38    39 1   
    66    38    42 ar  
    67    39    40 2   
    68    39    41 1   
    69    41    67 1   
    70    41    68 1   
    71    42    43 ar  
    72    42    69 1   
    73    43    44 ar  
    74    43    70 1   
    75    44    71 1   
@<TRIPOS>SUBSTRUCTURE
     1 NAJ         1 TEMP              0 ****  ****    0 ROOT
