@<TRIPOS>MOLECULE
NAJ
   71    75     1     0     0
SMALL
abcg2


@<TRIPOS>ATOM
      1 PA           0.0860     1.0750    -1.4920 p5         1 NAJ       1.477800
      2 O1A          1.2430     1.3900    -2.3930 o          1 NAJ      -0.856000
      3 O2A         -1.0490     2.0470    -1.3690 o          1 NAJ      -0.856000
      4 O5B         -0.4920    -0.4170    -1.8630 os         1 NAJ      -0.592400
      5 C5B         -1.5350    -0.5480    -2.7990 c3         1 NAJ       0.215600
      6 C4B         -2.4050    -1.7300    -2.4110 c5         1 NAJ       0.150300
      7 O4B         -2.8840    -1.5950    -1.0700 os         1 NAJ      -0.375000
      8 C3B         -3.6490    -1.8260    -3.2810 c5         1 NAJ       0.106300
      9 O3B         -4.0990    -3.1550    -3.2870 oh         1 NAJ      -0.705000
     10 C2B         -4.6120    -0.9260    -2.5010 c5         1 NAJ       0.067300
     11 O2B         -5.9680    -1.1740    -2.7140 oh         1 NAJ      -0.711000
     12 C1B         -4.2380    -1.2850    -1.0600 c5         1 NAJ       0.313300
     13 N9A         -4.4870    -0.2010    -0.1270 na         1 NAJ      -0.163800
     14 C8A         -3.7760     0.9630     0.0130 cc         1 NAJ       0.544700
     15 N7A         -4.3040     1.7740     0.8850 nd         1 NAJ      -0.531100
     16 C5A         -5.4010     1.1120     1.3460 cd         1 NAJ      -0.047600
     17 C6A         -6.3600     1.4700     2.3020 cc         1 NAJ       0.462000
     18 N6A         -6.3750     2.6010     2.9690 nv         1 NAJ      -1.068000
     19 N1A         -7.3150     0.5250     2.4980 na         1 NAJ      -0.364500
     20 C2A         -7.3530    -0.6640     1.8400 cc         1 NAJ       0.525400
     21 N3A         -6.4930    -1.0330     0.9510 nd         1 NAJ      -0.615000
     22 C4A         -5.5320    -0.1220     0.7290 cd         1 NAJ       0.299000
     23 O3           0.7150     0.7130    -0.0310 os         1 NAJ      -0.728800
     24 PN          -0.0600     0.8130     1.4330 p5         1 NAJ       1.464800
     25 O1N          0.0060     2.2270     1.9110 o          1 NAJ      -0.830000
     26 O2N         -1.3170     0.0150     1.4100 o          1 NAJ      -0.830000
     27 O5D          1.0240    -0.0970     2.2780 os         1 NAJ      -0.581400
     28 C5D          2.2050     0.4810     2.7760 c3         1 NAJ       0.225600
     29 C4D          3.1270    -0.6450     3.1980 c5         1 NAJ       0.151300
     30 O4D          3.4070    -1.5210     2.0850 os         1 NAJ      -0.406000
     31 C3D          4.4870    -0.1620     3.6760 c5         1 NAJ       0.114300
     32 O3D          5.0180    -1.1190     4.5510 oh         1 NAJ      -0.704000
     33 C2D          5.2690    -0.1290     2.3590 c5         1 NAJ       0.073300
     34 O2D          6.6520    -0.2310     2.4730 oh         1 NAJ      -0.714000
     35 C1D          4.7090    -1.3760     1.6680 c5         1 NAJ       0.279300
     36 N1N          4.7590    -1.2210     0.1870 na         1 NAJ       0.031300
     37 C2N          5.8830    -1.5930    -0.4320 ca         1 NAJ      -0.041000
     38 C3N          6.0320    -1.4160    -1.7920 ca         1 NAJ      -0.195600
     39 C7N          7.3350    -1.8540    -2.3980 c          1 NAJ       0.626700
     40 O7N          8.3240    -1.9600    -1.6930 o          1 NAJ      -0.589100
     41 N7N          7.3130    -2.0950    -3.7100 nt         1 NAJ      -0.590000
     42 C4N          4.9970    -0.8130    -2.4970 ca         1 NAJ      -0.006000
     43 C5N          3.8460    -0.4260    -1.8310 ca         1 NAJ      -0.105000
     44 C6N          3.7440    -0.6510    -0.4790 ca         1 NAJ       0.036700
     45 H51A        -2.1380     0.3650    -2.8530 h1         1 NAJ       0.022700
     46 H52A        -1.1370    -0.7320    -3.8040 h1         1 NAJ       0.022700
     47 H4B         -1.8130    -2.6490    -2.4640 h1         1 NAJ       0.104700
     48 H3B         -3.4710    -1.4510    -4.2980 h1         1 NAJ       0.059700
     49 HO3A        -5.0290    -3.1530    -3.5410 ho         1 NAJ       0.512000
     50 H2B         -4.3590     0.1240    -2.6930 h1         1 NAJ       0.070700
     51 HO2A        -6.2570    -0.6800    -3.4880 ho         1 NAJ       0.515000
     52 H1B         -4.8450    -2.1280    -0.7110 h2         1 NAJ       0.104700
     53 H8A         -2.8650     1.1630    -0.5360 h5         1 NAJ       0.168800
     54 H61A        -5.6600     3.2900     2.7990 hn         1 NAJ       0.535500
     55 H62A        -7.0830     2.8210     3.6510 hn         1 NAJ       0.535500
     56 H1A         -8.0510     0.7030     3.1700 hn         1 NAJ       0.355000
     57 H2A         -8.1740    -1.3100     2.1140 h5         1 NAJ       0.067100
     58 H51N         2.6970     1.1230     2.0340 h1         1 NAJ       0.027700
     59 H52N         2.0060     1.1070     3.6530 h1         1 NAJ       0.027700
     60 H4D          2.6320    -1.2460     3.9650 h1         1 NAJ       0.119700
     61 H3D          4.4290     0.8340     4.1350 h1         1 NAJ       0.075700
     62 HO3N         5.9620    -0.9490     4.6500 ho         1 NAJ       0.517000
     63 H2D          4.9710     0.7630     1.7940 h1         1 NAJ       0.074700
     64 HO2N         7.0300     0.6520     2.5320 ho         1 NAJ       0.531000
     65 H1D          5.3100    -2.2640     1.8880 h2         1 NAJ       0.106700
     66 H2N          6.6520    -2.0490     0.1740 h4         1 NAJ       0.189000
     67 H71N         6.4620    -2.1480    -4.2450 hn         1 NAJ       0.326000
     68 H72N         8.1550    -2.4040    -4.1710 hn         1 NAJ       0.326000
     69 H4N          5.0800    -0.6240    -3.5590 ha         1 NAJ       0.148000
     70 H5N          3.0230     0.0650    -2.3350 ha         1 NAJ       0.251000
     71 H6N          2.8560    -0.3890     0.0770 h4         1 NAJ       0.250000
@<TRIPOS>BOND
     1     1     2 1   
     2     1     3 1   
     3     1     4 1   
     4     1    23 1   
     5     4     5 1   
     6     5     6 1   
     7     5    45 1   
     8     5    46 1   
     9     6     7 1   
    10     6     8 1   
    11     6    47 1   
    12     7    12 1   
    13     8     9 1   
    14     8    10 1   
    15     8    48 1   
    16     9    49 1   
    17    10    11 1   
    18    10    12 1   
    19    10    50 1   
    20    11    51 1   
    21    12    13 1   
    22    12    52 1   
    23    13    14 1   
    24    13    22 2   
    25    14    15 2   
    26    14    53 1   
    27    15    16 1   
    28    16    17 2   
    29    16    22 1   
    30    17    18 1   
    31    17    19 1   
    32    18    54 1   
    33    18    55 1   
    34    19    20 1   
    35    19    56 1   
    36    20    21 2   
    37    20    57 1   
    38    21    22 1   
    39    23    24 1   
    40    24    25 1   
    41    24    26 1   
    42    24    27 1   
    43    27    28 1   
    44    28    29 1   
    45    28    58 1   
    46    28    59 1   
    47    29    30 1   
    48    29    31 1   
    49    29    60 1   
    50    30    35 1   
    51    31    32 1   
    52    31    33 1   
    53    31    61 1   
    54    32    62 1   
    55    33    34 1   
    56    33    35 1   
    57    33    63 1   
    58    34    64 1   
    59    35    36 1   
    60    35    65 1   
    61    36    37 1   
    62    36    44 2   
    63    37    38 ar  
    64    37    66 1   
    65    38    39 1   
    66    38    42 ar  
    67    39    40 2   
    68    39    41 1   
    69    41    67 1   
    70    41    68 1   
    71    42    43 ar  
    72    42    69 1   
    73    43    44 ar  
    74    43    70 1   
    75    44    71 1   
@<TRIPOS>SUBSTRUCTURE
     1 NAJ         1 TEMP              0 ****  ****    0 ROOT
