@<TRIPOS>MOLECULE
NAK
   11    10     1     0     0
SMALL
No Charge or Current Charge


@<TRIPOS>ATOM
      1 OAC         -1.2900     1.2000    -0.1850 o          1 NAK      -0.617500
      2 CAF         -0.8020     0.0830    -0.0570 c          1 NAK       0.678000
      3 OAD         -1.4630    -0.9500    -0.0500 o          1 NAK      -0.617500
      4 CAG          0.6710    -0.0400     0.0850 c2         1 NAK       0.156800
      5 CAE          1.5790     1.1780     0.0690 c3         1 NAK      -0.117900
      6 NAB          1.3470    -1.2750     0.2270 nv         1 NAK      -0.785000
      7 HAE1         1.7080     1.5540    -0.9530 hc         1 NAK       0.088033
      8 HAE2         1.1550     1.9920     0.6690 hc         1 NAK       0.088033
      9 HAE3         2.5730     0.9630     0.4770 hc         1 NAK       0.088033
     10 HAB1         0.7870    -2.1130     0.0730 hn         1 NAK       0.520000
     11 HAB2         2.3060    -1.3410    -0.1060 hn         1 NAK       0.520000
@<TRIPOS>BOND
     1     1     2 1   
     2     2     3 1   
     3     2     4 2   
     4     4     5 1   
     5     4     6 1   
     6     5     7 1   
     7     5     8 1   
     8     5     9 1   
     9     6    10 1   
    10     6    11 1   
@<TRIPOS>SUBSTRUCTURE
     1 NAK         1 TEMP              0 ****  ****    0 ROOT
