@<TRIPOS>MOLECULE
NAK
   11    10     1     0     0
SMALL
abcg2


@<TRIPOS>ATOM
      1 OAC         -1.2190     1.1900    -0.2240 o          1 NAK      -0.617500
      2 CAF         -0.7780     0.0450    -0.1180 c          1 NAK       0.678000
      3 OAD         -1.3470    -1.0520    -0.1080 o          1 NAK      -0.617500
      4 CAG          0.7670    -0.0360     0.0290 c2         1 NAK       0.156800
      5 CAE          1.6020     1.1740     0.0430 c3         1 NAK      -0.117900
      6 NAB          1.2680    -1.2040     0.1380 nv         1 NAK      -0.785000
      7 HAE1         1.4330     1.7360    -0.8760 hc         1 NAK       0.088033
      8 HAE2         1.2800     1.8200     0.8600 hc         1 NAK       0.088033
      9 HAE3         2.6620     0.9570     0.1470 hc         1 NAK       0.088033
     10 HAB1         0.6420    -2.0040     0.1230 hn         1 NAK       0.520000
     11 HAB2         2.2610    -1.3750     0.2360 hn         1 NAK       0.520000
@<TRIPOS>BOND
     1     1     2 1   
     2     2     3 1   
     3     2     4 2   
     4     4     5 1   
     5     4     6 1   
     6     5     7 1   
     7     5     8 1   
     8     5     9 1   
     9     6    10 1   
    10     6    11 1   
@<TRIPOS>SUBSTRUCTURE
     1 NAK         1 TEMP              0 ****  ****    0 ROOT
