@<TRIPOS>MOLECULE
NAL
   28    29     1     0     0
SMALL
bcc


@<TRIPOS>ATOM
      1 C1          40.7440    28.4170    22.5520 ca         1 NAL      -0.138000
      2 C2          39.4550    28.6980    22.9270 ca         1 NAL      -0.021300
      3 C3          38.3960    28.1320    22.1760 ca         1 NAL      -0.091000
      4 C4          38.6400    27.3220    21.1020 ca         1 NAL      -0.143000
      5 C4A         39.9640    27.0150    20.7120 ca         1 NAL      -0.047000
      6 C5          40.2540    26.1730    19.6130 ca         1 NAL      -0.116000
      7 C6          41.5490    25.8990    19.2650 ca         1 NAL      -0.149000
      8 C7          42.6150    26.4610    20.0000 ca         1 NAL      -0.146000
      9 C8          42.3640    27.2800    21.0660 ca         1 NAL      -0.112000
     10 C8A         41.0350    27.5790    21.4520 ca         1 NAL      -0.030000
     11 C9          39.1750    29.5550    24.1270 c3         1 NAL      -0.023100
     12 CA          39.2420    28.7770    25.4530 c3         1 NAL       0.015500
     13 C           39.1320    29.7960    26.6200 c          1 NAL       0.902600
     14 N           38.2520    27.7140    25.4530 n8         1 NAL      -0.888800
     15 O           38.0330    29.8760    27.2030 o          1 NAL      -0.835300
     16 OXT         40.1560    30.4730    26.8470 o          1 NAL      -0.835300
     17 H1          41.5720    28.8440    23.1100 ha         1 NAL       0.136000
     18 H3          37.3750    28.3550    22.4610 ha         1 NAL       0.133000
     19 H4          37.8150    26.8990    20.5390 ha         1 NAL       0.116000
     20 H5          39.4320    25.7440    19.0500 ha         1 NAL       0.117000
     21 H6          41.7610    25.2520    18.4240 ha         1 NAL       0.114000
     22 H7          43.6360    26.2390    19.7150 ha         1 NAL       0.115000
     23 H8          43.1830    27.7110    21.6300 ha         1 NAL       0.126000
     24 H91         39.8960    30.3730    24.1690 hc         1 NAL       0.051700
     25 H92         38.1840    30.0100    24.0340 hc         1 NAL       0.051700
     26 HA          40.2320    28.3120    25.5060 h1         1 NAL       0.041700
     27 H           38.4090    27.1230    26.2610 hn         1 NAL       0.327800
     28 H2          37.3460    28.1370    25.6210 hn         1 NAL       0.327800
@<TRIPOS>BOND
     1     1     2 ar  
     2     1    10 ar  
     3     1    17 1   
     4     2     3 ar  
     5     2    11 1   
     6     3     4 ar  
     7     3    18 1   
     8     4     5 ar  
     9     4    19 1   
    10     5     6 ar  
    11     5    10 ar  
    12     6     7 ar  
    13     6    20 1   
    14     7     8 ar  
    15     7    21 1   
    16     8     9 ar  
    17     8    22 1   
    18     9    10 ar  
    19     9    23 1   
    20    11    12 1   
    21    11    24 1   
    22    11    25 1   
    23    12    13 1   
    24    12    14 1   
    25    12    26 1   
    26    13    15 1   
    27    13    16 1   
    28    14    27 1   
    29    14    28 1   
@<TRIPOS>SUBSTRUCTURE
     1 NAL         1 TEMP              0 ****  ****    0 ROOT
