@<TRIPOS>MOLECULE
NAL
   28    29     1     0     0
SMALL
No Charge or Current Charge


@<TRIPOS>ATOM
      1 C1          40.7020    28.3430    22.5720 ca         1 NAL      -0.138000
      2 C2          39.3640    28.6430    22.8960 ca         1 NAL      -0.021300
      3 C3          38.3270    28.1330    22.0890 ca         1 NAL      -0.091000
      4 C4          38.6220    27.3270    20.9750 ca         1 NAL      -0.143000
      5 C4A         39.9590    27.0270    20.6550 ca         1 NAL      -0.047000
      6 C5          40.2600    26.2220    19.5400 ca         1 NAL      -0.116000
      7 C6          41.5970    25.9260    19.2250 ca         1 NAL      -0.149000
      8 C7          42.6370    26.4330    20.0230 ca         1 NAL      -0.146000
      9 C8          42.3410    27.2380    21.1370 ca         1 NAL      -0.112000
     10 C8A         41.0030    27.5370    21.4570 ca         1 NAL      -0.030000
     11 C9          39.0470    29.5310    24.0970 c3         1 NAL      -0.023100
     12 CA          39.2750    28.8400    25.4690 c3         1 NAL       0.015500
     13 C           39.2190    29.9170    26.6360 c          1 NAL       0.902600
     14 N           38.3800    27.6260    25.6160 n8         1 NAL      -0.888800
     15 O           38.1260    30.3530    26.9860 o          1 NAL      -0.835300
     16 OXT         40.2570    30.1970    27.2270 o          1 NAL      -0.835300
     17 H1          41.5070    28.7380    23.1880 ha         1 NAL       0.136000
     18 H3          37.2900    28.3580    22.3280 ha         1 NAL       0.133000
     19 H4          37.8110    26.9390    20.3620 ha         1 NAL       0.116000
     20 H5          39.4590    25.8260    18.9180 ha         1 NAL       0.117000
     21 H6          41.8270    25.3030    18.3630 ha         1 NAL       0.114000
     22 H7          43.6720    26.2040    19.7780 ha         1 NAL       0.115000
     23 H8          43.1520    27.6280    21.7500 ha         1 NAL       0.126000
     24 H91         39.6790    30.4270    24.0510 hc         1 NAL       0.051700
     25 H92         38.0130    29.8950    24.0460 hc         1 NAL       0.051700
     26 HA          40.3060    28.4600    25.4650 h1         1 NAL       0.041700
     27 H           38.6010    27.1490    26.4960 hn         1 NAL       0.327800
     28 H2          37.4140    27.9460    25.7430 hn         1 NAL       0.327800
@<TRIPOS>BOND
     1     1     2 ar  
     2     1    10 ar  
     3     1    17 1   
     4     2     3 ar  
     5     2    11 1   
     6     3     4 ar  
     7     3    18 1   
     8     4     5 ar  
     9     4    19 1   
    10     5     6 ar  
    11     5    10 ar  
    12     6     7 ar  
    13     6    20 1   
    14     7     8 ar  
    15     7    21 1   
    16     8     9 ar  
    17     8    22 1   
    18     9    10 ar  
    19     9    23 1   
    20    11    12 1   
    21    11    24 1   
    22    11    25 1   
    23    12    13 1   
    24    12    14 1   
    25    12    26 1   
    26    13    15 1   
    27    13    16 1   
    28    14    27 1   
    29    14    28 1   
@<TRIPOS>SUBSTRUCTURE
     1 NAL         1 TEMP              0 ****  ****    0 ROOT
