@<TRIPOS>MOLECULE
NAM
   30    31     1     0     0
SMALL
bcc


@<TRIPOS>ATOM
      1 N            1.1430     1.3300     2.1860 n8         1 NAM      -0.875800
      2 CA           0.0090     0.4500     2.0130 c3         1 NAM       0.087500
      3 CB           0.3010    -0.8550     1.2290 c3         1 NAM      -0.073100
      4 C           -0.5190     0.0520     3.3850 c          1 NAM       0.678100
      5 O            0.2400    -0.2530     4.2930 o          1 NAM      -0.601100
      6 NXT         -1.8540     0.0110     3.4930 nt         1 NAM      -0.676000
      7 CG           0.7580    -0.5780    -0.1730 ca         1 NAM      -0.075300
      8 CD1          2.1010    -0.5540    -0.4590 ca         1 NAM      -0.127000
      9 CE1          2.5810    -0.2460    -1.7470 ca         1 NAM      -0.123000
     10 CZ1          1.7050     0.0440    -2.7540 ca         1 NAM      -0.113000
     11 CE2          0.3110     0.0310    -2.5130 ca         1 NAM      -0.036000
     12 CH1         -0.6100     0.3240    -3.5460 ca         1 NAM      -0.113000
     13 CP          -1.9570     0.3100    -3.3120 ca         1 NAM      -0.125000
     14 CH2         -2.4430    -0.0040    -2.0270 ca         1 NAM      -0.123000
     15 CZ2         -1.5750    -0.2910    -1.0080 ca         1 NAM      -0.124000
     16 CD2         -0.1730    -0.2820    -1.2130 ca         1 NAM      -0.026000
     17 H            1.4910     1.6170     1.2800 hn         1 NAM       0.355300
     18 H2           1.8990     0.8330     2.6410 hn         1 NAM       0.355300
     19 HA          -0.7640     1.0130     1.4790 h1         1 NAM       0.066700
     20 HB2          1.0810    -1.4050     1.7600 hc         1 NAM       0.061700
     21 HB3         -0.5850    -1.4950     1.2360 hc         1 NAM       0.061700
     22 HNX1        -2.2930    -0.3000     4.3450 hn         1 NAM       0.313000
     23 HNX2        -2.4580     0.3040     2.7440 hn         1 NAM       0.313000
     24 HD1          2.8120    -0.7830     0.3260 ha         1 NAM       0.131000
     25 HE1          3.6470    -0.2390    -1.9300 ha         1 NAM       0.135000
     26 HZ1          2.0650     0.2860    -3.7470 ha         1 NAM       0.134000
     27 HH1         -0.2290     0.5620    -4.5310 ha         1 NAM       0.132000
     28 HP          -2.6520     0.5360    -4.1100 ha         1 NAM       0.133000
     29 HH2         -3.5100    -0.0200    -1.8460 ha         1 NAM       0.130000
     30 HZ2         -1.9760    -0.5370    -0.0340 ha         1 NAM       0.125000
@<TRIPOS>BOND
     1     1     2 1   
     2     1    17 1   
     3     1    18 1   
     4     2     3 1   
     5     2     4 1   
     6     2    19 1   
     7     3     7 1   
     8     3    20 1   
     9     3    21 1   
    10     4     5 2   
    11     4     6 1   
    12     6    22 1   
    13     6    23 1   
    14     7     8 ar  
    15     7    16 ar  
    16     8     9 ar  
    17     8    24 1   
    18     9    10 ar  
    19     9    25 1   
    20    10    11 ar  
    21    10    26 1   
    22    11    12 ar  
    23    11    16 ar  
    24    12    13 ar  
    25    12    27 1   
    26    13    14 ar  
    27    13    28 1   
    28    14    15 ar  
    29    14    29 1   
    30    15    16 ar  
    31    15    30 1   
@<TRIPOS>SUBSTRUCTURE
     1 NAM         1 TEMP              0 ****  ****    0 ROOT
