@<TRIPOS>MOLECULE
NAM
   30    31     1     0     0
SMALL
No Charge or Current Charge


@<TRIPOS>ATOM
      1 N            1.1060     1.4680     1.9860 n8         1 NAM      -0.875800
      2 CA          -0.0470     0.5080     2.0670 c3         1 NAM       0.087500
      3 CB           0.2800    -0.7880     1.2710 c3         1 NAM      -0.073100
      4 C           -0.5760     0.1780     3.5150 c          1 NAM       0.678100
      5 O            0.0370     0.4340     4.5410 o          1 NAM      -0.601100
      6 NXT         -1.7850    -0.4260     3.5980 nt         1 NAM      -0.676000
      7 CG           0.7330    -0.5300    -0.1730 ca         1 NAM      -0.075300
      8 CD1          2.1120    -0.6160    -0.4580 ca         1 NAM      -0.127000
      9 CE1          2.5960    -0.3860    -1.7550 ca         1 NAM      -0.123000
     10 CZ1          1.7040    -0.0670    -2.7880 ca         1 NAM      -0.113000
     11 CE2          0.3250     0.0200    -2.5290 ca         1 NAM      -0.036000
     12 CH1         -0.5540     0.3380    -3.5820 ca         1 NAM      -0.113000
     13 CP          -1.9350     0.4280    -3.3490 ca         1 NAM      -0.125000
     14 CH2         -2.4410     0.1970    -2.0620 ca         1 NAM      -0.123000
     15 CZ2         -1.5710    -0.1210    -1.0050 ca         1 NAM      -0.124000
     16 CD2         -0.1740    -0.2120    -1.2220 ca         1 NAM      -0.026000
     17 H            1.4580     1.4730     1.0230 hn         1 NAM       0.355300
     18 H2           1.8870     1.1010     2.5390 hn         1 NAM       0.355300
     19 HA          -0.8880     0.9960     1.5560 h1         1 NAM       0.066700
     20 HB2          1.0570    -1.3390     1.8160 hc         1 NAM       0.061700
     21 HB3         -0.5890    -1.4570     1.2770 hc         1 NAM       0.061700
     22 HNX1        -2.1580    -0.6520     4.5090 hn         1 NAM       0.313000
     23 HNX2        -2.3060    -0.6400     2.7610 hn         1 NAM       0.313000
     24 HD1          2.8200    -0.8620     0.3320 ha         1 NAM       0.131000
     25 HE1          3.6630    -0.4540    -1.9590 ha         1 NAM       0.135000
     26 HZ1          2.0870     0.1110    -3.7910 ha         1 NAM       0.134000
     27 HH1         -0.1680     0.5170    -4.5840 ha         1 NAM       0.132000
     28 HP          -2.6110     0.6740    -4.1660 ha         1 NAM       0.133000
     29 HH2         -3.5130     0.2640    -1.8810 ha         1 NAM       0.130000
     30 HZ2         -2.0030    -0.2950    -0.0250 ha         1 NAM       0.125000
@<TRIPOS>BOND
     1     1     2 1   
     2     1    17 1   
     3     1    18 1   
     4     2     3 1   
     5     2     4 1   
     6     2    19 1   
     7     3     7 1   
     8     3    20 1   
     9     3    21 1   
    10     4     5 2   
    11     4     6 1   
    12     6    22 1   
    13     6    23 1   
    14     7     8 ar  
    15     7    16 ar  
    16     8     9 ar  
    17     8    24 1   
    18     9    10 ar  
    19     9    25 1   
    20    10    11 ar  
    21    10    26 1   
    22    11    12 ar  
    23    11    16 ar  
    24    12    13 ar  
    25    12    27 1   
    26    13    14 ar  
    27    13    28 1   
    28    14    15 ar  
    29    14    29 1   
    30    15    16 ar  
    31    15    30 1   
@<TRIPOS>SUBSTRUCTURE
     1 NAM         1 TEMP              0 ****  ****    0 ROOT
