@<TRIPOS>MOLECULE
NAQ
   84    88     1     0     0
SMALL
bcc


@<TRIPOS>ATOM
      1 PA           0.0120     0.1210     1.6450 p5         1 NAQ       1.473800
      2 O1A         -1.1450    -0.1570     2.5550 o          1 NAQ      -0.860500
      3 O2A          1.2810     0.6880     2.2110 o          1 NAQ      -0.860500
      4 O5          -0.4810     1.0490     0.3830 os         1 NAQ      -0.557200
      5 C5          -1.1360     2.2560     0.6860 c3         1 NAQ       0.188400
      6 C4          -2.0870     2.6200    -0.4410 c5         1 NAQ       0.136100
      7 O4          -2.9580     1.5330    -0.7600 os         1 NAQ      -0.345600
      8 C3          -2.9980     3.7710    -0.0350 c5         1 NAQ       0.075100
      9 O3          -3.4220     4.4560    -1.1840 oh         1 NAQ      -0.590800
     10 C2          -4.1600     3.0030     0.6050 c5         1 NAQ       0.043100
     11 O2          -5.3760     3.6900     0.6250 oh         1 NAQ      -0.578800
     12 C1          -4.2570     1.7890    -0.3220 c5         1 NAQ       0.274800
     13 N9A         -4.7890     0.6100     0.3180 na         1 NAQ      -0.264000
     14 C8A         -4.1440    -0.2390     1.1800 cc         1 NAQ       0.493700
     15 N7A         -4.9200    -1.1790     1.6400 nd         1 NAQ      -0.562100
     16 C5A         -6.1360    -0.9440     1.0530 ca         1 NAQ      -0.203200
     17 C6A         -7.3770    -1.6000     1.1280 ca         1 NAQ       0.759200
     18 N6A         -7.5720    -2.6870     1.8800 nv         1 NAQ      -0.967500
     19 N1A         -8.3900    -1.1150     0.4010 nb         1 NAQ      -0.851000
     20 C2A         -8.1840    -0.0430    -0.3600 ca         1 NAQ       0.670900
     21 N3A         -7.0740     0.6580    -0.5080 nb         1 NAQ      -0.739000
     22 C4A         -6.0760     0.1640     0.2230 ca         1 NAQ       0.434800
     23 OPP          0.4190    -1.2060     0.7880 os         1 NAQ      -0.734800
     24 PN          -0.5870    -2.4610     0.3830 p5         1 NAQ       1.446800
     25 O1N         -1.8020    -1.9450    -0.3050 o          1 NAQ      -0.811500
     26 O2N         -0.6370    -3.4210     1.5250 o          1 NAQ      -0.811500
     27 O5B          0.3690    -3.0860    -0.8080 os         1 NAQ      -0.551200
     28 C5B          1.4510    -3.9220    -0.4750 c3         1 NAQ       0.201400
     29 C4B          2.3040    -4.0970    -1.7150 c5         1 NAQ       0.127100
     30 O4B          2.7820    -2.8250    -2.1990 os         1 NAQ      -0.350600
     31 C3B          3.5580    -4.9210    -1.4650 c5         1 NAQ       0.091100
     32 O3B          3.9600    -5.5020    -2.6750 oh         1 NAQ      -0.579800
     33 C2B          4.5420    -3.8330    -1.0240 c5         1 NAQ       0.044100
     34 O2B          5.8900    -4.1250    -1.2150 oh         1 NAQ      -0.601800
     35 C1B          4.1240    -2.6760    -1.9400 c5         1 NAQ       0.229800
     36 N1N          4.3790    -1.3730    -1.2680 na         1 NAQ       0.005900
     37 C2N          5.6020    -0.8400    -1.3810 ca         1 NAQ      -0.046300
     38 C3N          5.9420     0.3060    -0.7010 ca         1 NAQ      -0.195600
     39 C7N          7.2850     0.9260    -0.9640 c          1 NAQ       0.689700
     40 O7N          7.3570     2.1060    -1.2630 o          1 NAQ      -0.577100
     41 N7N          8.3240     0.0940    -0.8810 nt         1 NAQ      -0.667000
     42 C4N          5.0050     0.9140     0.1440 ca         1 NAQ       0.072700
     43 C5N          3.7450     0.3310     0.2260 ca         1 NAQ      -0.113000
     44 C6N          3.4510    -0.8020    -0.4940 ca         1 NAQ       0.024700
     45 C5P          4.5220     2.2800     2.2240 c3         1 NAQ      -0.096100
     46 C4P          5.3320     2.1520     0.9270 c3         1 NAQ      -0.142400
     47 C3P          5.0640     3.3880     0.0660 c          1 NAQ       0.593100
     48 OP           4.2040     3.3770    -0.7800 o          1 NAQ      -0.495100
     49 C2P          5.8790     4.6050     0.4000 c3         1 NAQ      -0.171400
     50 C1P          5.4250     5.8740    -0.2980 c3         1 NAQ      -0.077100
     51 H5'1        -1.6870     2.1820     1.6310 h1         1 NAQ       0.015200
     52 H5'2        -0.4180     3.0770     0.8000 h1         1 NAQ       0.015200
     53 H4          -1.5140     2.8660    -1.3390 h1         1 NAQ       0.089700
     54 H3          -2.5070     4.4450     0.6810 h1         1 NAQ       0.043700
     55 HO'3        -4.2600     4.8860    -0.9770 ho         1 NAQ       0.410000
     56 H2          -3.8690     2.6740     1.6090 h1         1 NAQ       0.070700
     57 HO'2        -5.4040     4.2480     1.4080 ho         1 NAQ       0.400000
     58 H1          -4.9310     2.0120    -1.1580 h2         1 NAQ       0.098700
     59 H8A         -3.0930    -0.1390     1.4170 h5         1 NAQ       0.139800
     60 H6A1        -6.8530    -3.0200     2.4980 hn         1 NAQ       0.441300
     61 H6A2        -8.4910    -3.0860     1.9640 hn         1 NAQ       0.441300
     62 H2A         -9.0430     0.2960    -0.9290 h5         1 NAQ       0.023100
     63 H5A1         1.1090    -4.9120    -0.1550 h1         1 NAQ       0.024200
     64 H5A2         2.0480    -3.5130     0.3510 h1         1 NAQ       0.024200
     65 H4B          1.6970    -4.5370    -2.5100 h1         1 NAQ       0.122700
     66 H3B          3.4060    -5.6680    -0.6760 h1         1 NAQ       0.074700
     67 HOA3         4.8700    -5.8040    -2.5770 ho         1 NAQ       0.411000
     68 H2B          4.3280    -3.5650     0.0180 h1         1 NAQ       0.075700
     69 HOB2         6.2510    -4.4980    -0.4050 ho         1 NAQ       0.424000
     70 H1B          4.7200    -2.6530    -2.8580 h2         1 NAQ       0.099700
     71 H2N          6.2870    -1.3420    -2.0490 h4         1 NAQ       0.180000
     72 H7N1         8.2410    -0.8340    -0.5000 hn         1 NAQ       0.320000
     73 H7N2         9.2570     0.4350    -1.0560 hn         1 NAQ       0.320000
     74 H5N          2.9670     0.7220     0.8710 ha         1 NAQ       0.277000
     75 H6N          2.4720    -1.2530    -0.4610 h4         1 NAQ       0.274000
     76 H5P1         4.6260     1.3800     2.8280 hc         1 NAQ       0.066033
     77 H5P2         4.8970     3.1160     2.8120 hc         1 NAQ       0.066033
     78 H5P3         3.4610     2.4450     2.0440 hc         1 NAQ       0.066033
     79 H4P          6.3880     2.1420     1.2030 hc         1 NAQ       0.065700
     80 H2P1         6.9180     4.3710     0.1470 hc         1 NAQ       0.062200
     81 H2P2         5.8780     4.7340     1.4860 hc         1 NAQ       0.062200
     82 H1P1         6.0560     6.7100     0.0000 hc         1 NAQ       0.041033
     83 H1P2         5.4880     5.7810    -1.3820 hc         1 NAQ       0.041033
     84 H1P3         4.3960     6.1260    -0.0430 hc         1 NAQ       0.041033
@<TRIPOS>BOND
     1     1     2 1   
     2     1     3 1   
     3     1     4 1   
     4     1    23 1   
     5     4     5 1   
     6     5     6 1   
     7     5    51 1   
     8     5    52 1   
     9     6     7 1   
    10     6     8 1   
    11     6    53 1   
    12     7    12 1   
    13     8     9 1   
    14     8    10 1   
    15     8    54 1   
    16     9    55 1   
    17    10    11 1   
    18    10    12 1   
    19    10    56 1   
    20    11    57 1   
    21    12    13 1   
    22    12    58 1   
    23    13    14 1   
    24    13    22 1   
    25    14    15 2   
    26    14    59 1   
    27    15    16 1   
    28    16    17 ar  
    29    16    22 ar  
    30    17    18 1   
    31    17    19 ar  
    32    18    60 1   
    33    18    61 1   
    34    19    20 ar  
    35    20    21 ar  
    36    20    62 1   
    37    21    22 ar  
    38    23    24 1   
    39    24    25 1   
    40    24    26 1   
    41    24    27 1   
    42    27    28 1   
    43    28    29 1   
    44    28    63 1   
    45    28    64 1   
    46    29    30 1   
    47    29    31 1   
    48    29    65 1   
    49    30    35 1   
    50    31    32 1   
    51    31    33 1   
    52    31    66 1   
    53    32    67 1   
    54    33    34 1   
    55    33    35 1   
    56    33    68 1   
    57    34    69 1   
    58    35    36 1   
    59    35    70 1   
    60    36    37 1   
    61    36    44 2   
    62    37    38 ar  
    63    37    71 1   
    64    38    39 1   
    65    38    42 ar  
    66    39    40 2   
    67    39    41 1   
    68    41    72 1   
    69    41    73 1   
    70    42    43 ar  
    71    42    46 1   
    72    43    44 ar  
    73    43    74 1   
    74    44    75 1   
    75    45    46 1   
    76    45    76 1   
    77    45    77 1   
    78    45    78 1   
    79    46    47 1   
    80    46    79 1   
    81    47    48 2   
    82    47    49 1   
    83    49    50 1   
    84    49    80 1   
    85    49    81 1   
    86    50    82 1   
    87    50    83 1   
    88    50    84 1   
@<TRIPOS>SUBSTRUCTURE
     1 NAQ         1 TEMP              0 ****  ****    0 ROOT
