@<TRIPOS>MOLECULE
NAQ
   84    88     1     0     0
SMALL
No Charge or Current Charge


@<TRIPOS>ATOM
      1 PA           0.6570     0.7570     3.6800 p5         1 NAQ       1.473800
      2 O1A          0.3640     0.4180     5.1030 o          1 NAQ      -0.860500
      3 O2A          2.0050     1.3860     3.5700 o          1 NAQ      -0.860500
      4 O5          -0.4640     1.7250     3.0470 os         1 NAQ      -0.580400
      5 C5          -0.1360     2.4930     1.8810 c3         1 NAQ       0.211600
      6 C4          -1.4130     2.7990     1.0520 c5         1 NAQ       0.159300
      7 O4          -1.8040     1.6130     0.3060 os         1 NAQ      -0.392000
      8 C3          -2.6750     3.2480     1.8790 c5         1 NAQ       0.098300
      9 O3          -3.4370     4.2650     1.2150 oh         1 NAQ      -0.713000
     10 C2          -3.4880     1.9220     1.9140 c5         1 NAQ       0.066300
     11 O2          -4.8780     2.1500     2.2300 oh         1 NAQ      -0.701000
     12 C1          -3.2230     1.4380     0.4510 c5         1 NAQ       0.327300
     13 N9A         -3.5860     0.0660     0.0950 na         1 NAQ      -0.293300
     14 C8A         -3.9400    -0.9510     0.9910 cc         1 NAQ       0.493700
     15 N7A         -4.2860    -2.0820     0.3360 nd         1 NAQ      -0.562100
     16 C5A         -4.1210    -1.7390    -1.0100 ca         1 NAQ      -0.072600
     17 C6A         -4.3370    -2.5160    -2.1700 ca         1 NAQ       0.430900
     18 N6A         -4.7640    -3.8080    -2.1290 nv         1 NAQ      -1.077900
     19 N1A         -4.1470    -2.0040    -3.3970 nb         1 NAQ      -0.325000
     20 C2A         -3.7320    -0.7140    -3.4440 ca         1 NAQ       0.144900
     21 N3A         -3.4980     0.1030    -2.3860 nb         1 NAQ      -0.213000
     22 C4A         -3.7010    -0.4420    -1.1690 ca         1 NAQ       0.106500
     23 OPP          0.5550    -0.4440     2.6640 os         1 NAQ      -0.734800
     24 PN          -0.4790    -1.5560     3.0810 p5         1 NAQ       1.446800
     25 O1N         -1.8360    -1.0370     3.4190 o          1 NAQ      -0.811500
     26 O2N          0.0590    -2.5150     4.0920 o          1 NAQ      -0.811500
     27 O5B         -0.5500    -2.2690     1.6390 os         1 NAQ      -0.574400
     28 C5B          0.5080    -3.1490     1.2410 c3         1 NAQ       0.224600
     29 C4B          0.3430    -3.4670    -0.2750 c5         1 NAQ       0.150300
     30 O4B          0.6200    -2.2860    -1.0770 os         1 NAQ      -0.397000
     31 C3B          1.3520    -4.5310    -0.8160 c5         1 NAQ       0.114300
     32 O3B          0.9700    -5.0770    -2.0860 oh         1 NAQ      -0.702000
     33 C2B          2.6210    -3.6450    -0.9780 c5         1 NAQ       0.067300
     34 O2B          3.5790    -4.2600    -1.8660 oh         1 NAQ      -0.724000
     35 C1B          1.9960    -2.3200    -1.5430 c5         1 NAQ       0.282300
     36 N1N          2.7190    -1.0810    -1.2020 na         1 NAQ       0.027300
     37 C2N          3.8780    -0.7100    -1.8940 ca         1 NAQ      -0.079000
     38 C3N          4.6610     0.4270    -1.5660 ca         1 NAQ      -0.195600
     39 C7N          5.8630     0.7420    -2.4280 c          1 NAQ       0.622700
     40 O7N          6.2240     1.8740    -2.6950 o          1 NAQ      -0.577100
     41 N7N          6.5080    -0.2990    -2.9950 nt         1 NAQ      -0.600000
     42 C4N          4.2650     1.2390    -0.4670 ca         1 NAQ       0.072700
     43 C5N          3.0770     0.8950     0.2070 ca         1 NAQ      -0.095000
     44 C6N          2.3140    -0.2200    -0.1780 ca         1 NAQ       0.042700
     45 C5P          5.1210     2.6170     1.5630 c3         1 NAQ      -0.096100
     46 C4P          5.0700     2.4630     0.0170 c3         1 NAQ      -0.142400
     47 C3P          4.5340     3.7570    -0.6380 c          1 NAQ       0.593100
     48 OP           3.3370     4.0180    -0.6410 o          1 NAQ      -0.495100
     49 C2P          5.5530     4.7380    -1.2430 c3         1 NAQ      -0.171400
     50 C1P          5.8660     5.9040    -0.2800 c3         1 NAQ      -0.077100
     51 H5'1         0.3290     3.4420     2.1780 h1         1 NAQ       0.015200
     52 H5'2         0.5680     1.9570     1.2340 h1         1 NAQ       0.015200
     53 H4          -1.1450     3.5790     0.3270 h1         1 NAQ       0.089700
     54 H3          -2.4010     3.5790     2.8910 h1         1 NAQ       0.043700
     55 HO'3        -4.3780     4.0340     1.4140 ho         1 NAQ       0.509000
     56 H2          -3.0370     1.2230     2.6320 h1         1 NAQ       0.070700
     57 HO'2        -4.9670     2.1310     3.2140 ho         1 NAQ       0.499000
     58 H1          -3.7490     2.0890    -0.2600 h2         1 NAQ       0.098700
     59 H8A         -3.9540    -0.8080     2.0660 h5         1 NAQ       0.139800
     60 H6A1        -5.1200    -4.1430    -1.2360 hn         1 NAQ       0.496500
     61 H6A2        -5.1840    -4.2030    -2.9670 hn         1 NAQ       0.496500
     62 H2A         -3.5740    -0.2880    -4.4340 h5         1 NAQ       0.023100
     63 H5A1         0.4500    -4.0890     1.8060 h1         1 NAQ       0.024200
     64 H5A2         1.4900    -2.6970     1.4300 h1         1 NAQ       0.024200
     65 H4B         -0.6950    -3.7860    -0.4420 h1         1 NAQ       0.122700
     66 H3B          1.5150    -5.3380    -0.0860 h1         1 NAQ       0.074700
     67 HOA3         1.8210    -5.1220    -2.5900 ho         1 NAQ       0.510000
     68 H2B          3.0820    -3.4490     0.0030 h1         1 NAQ       0.075700
     69 HOB2         4.2310    -4.7610    -1.3140 ho         1 NAQ       0.523000
     70 H1B          1.9840    -2.3650    -2.6380 h2         1 NAQ       0.099700
     71 H2N          4.1340    -1.3390    -2.7490 h4         1 NAQ       0.162000
     72 H7N1         6.2400    -1.2450    -2.7730 hn         1 NAQ       0.320000
     73 H7N2         7.2990    -0.1170    -3.5940 hn         1 NAQ       0.320000
     74 H5N          2.7230     1.5000     1.0350 ha         1 NAQ       0.259000
     75 H6N          1.3750    -0.4440     0.3290 h4         1 NAQ       0.256000
     76 H5P1         5.4050     1.6700     2.0390 hc         1 NAQ       0.066033
     77 H5P2         5.8660     3.3700     1.8500 hc         1 NAQ       0.066033
     78 H5P3         4.1580     2.9400     1.9780 hc         1 NAQ       0.066033
     79 H4P          6.1240     2.3510    -0.2570 hc         1 NAQ       0.065700
     80 H2P1         5.1400     5.1550    -2.1690 hc         1 NAQ       0.062200
     81 H2P2         6.4990     4.2260    -1.4530 hc         1 NAQ       0.062200
     82 H1P1         6.5810     6.5980    -0.7390 hc         1 NAQ       0.041033
     83 H1P2         4.9540     6.4640    -0.0370 hc         1 NAQ       0.041033
     84 H1P3         6.3030     5.5330     0.6560 hc         1 NAQ       0.041033
@<TRIPOS>BOND
     1     1     2 1   
     2     1     3 1   
     3     1     4 1   
     4     1    23 1   
     5     4     5 1   
     6     5     6 1   
     7     5    51 1   
     8     5    52 1   
     9     6     7 1   
    10     6     8 1   
    11     6    53 1   
    12     7    12 1   
    13     8     9 1   
    14     8    10 1   
    15     8    54 1   
    16     9    55 1   
    17    10    11 1   
    18    10    12 1   
    19    10    56 1   
    20    11    57 1   
    21    12    13 1   
    22    12    58 1   
    23    13    14 1   
    24    13    22 1   
    25    14    15 2   
    26    14    59 1   
    27    15    16 1   
    28    16    17 ar  
    29    16    22 ar  
    30    17    18 1   
    31    17    19 ar  
    32    18    60 1   
    33    18    61 1   
    34    19    20 ar  
    35    20    21 ar  
    36    20    62 1   
    37    21    22 ar  
    38    23    24 1   
    39    24    25 1   
    40    24    26 1   
    41    24    27 1   
    42    27    28 1   
    43    28    29 1   
    44    28    63 1   
    45    28    64 1   
    46    29    30 1   
    47    29    31 1   
    48    29    65 1   
    49    30    35 1   
    50    31    32 1   
    51    31    33 1   
    52    31    66 1   
    53    32    67 1   
    54    33    34 1   
    55    33    35 1   
    56    33    68 1   
    57    34    69 1   
    58    35    36 1   
    59    35    70 1   
    60    36    37 1   
    61    36    44 2   
    62    37    38 ar  
    63    37    71 1   
    64    38    39 1   
    65    38    42 ar  
    66    39    40 2   
    67    39    41 1   
    68    41    72 1   
    69    41    73 1   
    70    42    43 ar  
    71    42    46 1   
    72    43    44 ar  
    73    43    74 1   
    74    44    75 1   
    75    45    46 1   
    76    45    76 1   
    77    45    77 1   
    78    45    78 1   
    79    46    47 1   
    80    46    79 1   
    81    47    48 2   
    82    47    49 1   
    83    49    50 1   
    84    49    80 1   
    85    49    81 1   
    86    50    82 1   
    87    50    83 1   
    88    50    84 1   
@<TRIPOS>SUBSTRUCTURE
     1 NAQ         1 TEMP              0 ****  ****    0 ROOT
