@<TRIPOS>MOLECULE
NAR
   32    34     1     0     0
SMALL
No Charge or Current Charge


@<TRIPOS>ATOM
      1 C1           1.8130     0.3320    -2.2440 ca         1 NAR      -0.226000
      2 C2           1.7480     0.3160    -3.6410 ca         1 NAR       0.205100
      3 C3           0.5190     0.1390    -4.2830 ca         1 NAR      -0.230000
      4 C4          -0.6480    -0.0340    -3.5310 ca         1 NAR       0.247100
      5 C5          -0.5950    -0.0330    -2.1260 ca         1 NAR      -0.364600
      6 C6           0.6440     0.1710    -1.4890 ca         1 NAR       0.233100
      7 C7          -1.8080    -0.2580    -1.2810 c          1 NAR       0.605700
      8 C8          -1.5640    -0.4950     0.1960 c6         1 NAR      -0.213400
      9 C9          -0.4410     0.4330     0.6690 c6         1 NAR       0.239600
     10 O1           0.7430     0.2080    -0.1180 os         1 NAR      -0.337100
     11 O2          -2.9390    -0.2160    -1.7480 o          1 NAR      -0.549100
     12 C10         -0.0940     0.2310     2.1480 ca         1 NAR      -0.137300
     13 C11          0.5270    -0.9580     2.5850 ca         1 NAR      -0.044500
     14 C12          0.8370    -1.1340     3.9450 ca         1 NAR      -0.180000
     15 C13          0.5300    -0.1300     4.8730 ca         1 NAR       0.154100
     16 C14         -0.0870     1.0560     4.4460 ca         1 NAR      -0.180000
     17 C15         -0.3990     1.2370     3.0870 ca         1 NAR      -0.044500
     18 O3           0.8350    -0.3120     6.1890 oh         1 NAR      -0.529100
     19 O4           2.8770     0.4790    -4.3850 oh         1 NAR      -0.563100
     20 O5          -1.8260    -0.2100    -4.1830 oh         1 NAR      -0.534100
     21 H11          2.7600     0.4770    -1.7320 ha         1 NAR       0.145000
     22 H31          0.4710     0.1320    -5.3670 ha         1 NAR       0.145000
     23 H81         -1.1910    -1.5210     0.2950 hc         1 NAR       0.088700
     24 H82         -2.4940    -0.3880     0.7670 hc         1 NAR       0.088700
     25 H9          -0.7560     1.4750     0.5130 h1         1 NAR       0.055700
     26 H111         0.7720    -1.7420     1.8720 ha         1 NAR       0.118500
     27 H121         1.3160    -2.0520     4.2770 ha         1 NAR       0.125000
     28 H141        -0.3280     1.8410     5.1590 ha         1 NAR       0.125000
     29 H151        -0.8780     2.1600     2.7660 ha         1 NAR       0.118500
     30 HO3          0.5530     0.4850     6.6860 ho         1 NAR       0.467000
     31 H41          3.6350     0.5890    -3.7720 ho         1 NAR       0.472000
     32 H51         -2.5240    -0.2450    -3.4840 ho         1 NAR       0.497000
@<TRIPOS>BOND
     1     1     2 ar  
     2     1     6 ar  
     3     1    21 1   
     4     2     3 ar  
     5     2    19 1   
     6     3     4 ar  
     7     3    22 1   
     8     4     5 ar  
     9     4    20 1   
    10     5     6 ar  
    11     5     7 1   
    12     6    10 1   
    13     7     8 1   
    14     7    11 2   
    15     8     9 1   
    16     8    23 1   
    17     8    24 1   
    18     9    10 1   
    19     9    12 1   
    20     9    25 1   
    21    12    13 ar  
    22    12    17 ar  
    23    13    14 ar  
    24    13    26 1   
    25    14    15 ar  
    26    14    27 1   
    27    15    16 ar  
    28    15    18 1   
    29    16    17 ar  
    30    16    28 1   
    31    17    29 1   
    32    18    30 1   
    33    19    31 1   
    34    20    32 1   
@<TRIPOS>SUBSTRUCTURE
     1 NAR         1 TEMP              0 ****  ****    0 ROOT
