@<TRIPOS>MOLECULE
NAR
   32    34     1     0     0
SMALL
bcc


@<TRIPOS>ATOM
      1 C1           1.8330     0.2550    -2.1250 ca         1 NAR      -0.244000
      2 C2           1.7860     0.2220    -3.5110 ca         1 NAR       0.205100
      3 C3           0.5790     0.0810    -4.1880 ca         1 NAR      -0.248000
      4 C4          -0.5940    -0.0750    -3.4680 ca         1 NAR       0.247100
      5 C5          -0.5860    -0.0380    -2.0540 ca         1 NAR      -0.364600
      6 C6           0.6520     0.1360    -1.4060 ca         1 NAR       0.233100
      7 C7          -1.7870    -0.2970    -1.2630 c          1 NAR       0.605700
      8 C8          -1.5520    -0.4510     0.2160 c6         1 NAR      -0.213400
      9 C9          -0.4210     0.4450     0.6880 c6         1 NAR       0.216400
     10 O1           0.7640     0.1940    -0.0730 os         1 NAR      -0.313900
     11 O2          -2.8980    -0.4300    -1.7490 o          1 NAR      -0.549100
     12 C10         -0.0830     0.2450     2.1340 ca         1 NAR      -0.137300
     13 C11          0.4590    -0.9600     2.5820 ca         1 NAR      -0.062500
     14 C12          0.7530    -1.1560     3.9180 ca         1 NAR      -0.198000
     15 C13          0.5010    -0.1410     4.8430 ca         1 NAR       0.154100
     16 C14         -0.0480     1.0610     4.4100 ca         1 NAR      -0.198000
     17 C15         -0.3270     1.2460     3.0630 ca         1 NAR      -0.062500
     18 O3           0.8110    -0.3820     6.1310 oh         1 NAR      -0.490100
     19 O4           2.9430     0.3040    -4.2210 oh         1 NAR      -0.524100
     20 O5          -1.7110    -0.3290    -4.1650 oh         1 NAR      -0.495100
     21 H11          2.7750     0.3780    -1.6070 ha         1 NAR       0.163000
     22 H31          0.5540     0.0600    -5.2690 ha         1 NAR       0.163000
     23 H81         -1.3200    -1.5040     0.4140 hc         1 NAR       0.088700
     24 H82         -2.4620    -0.2090     0.7660 hc         1 NAR       0.088700
     25 H9          -0.7070     1.4920     0.5220 h1         1 NAR       0.055700
     26 H111         0.6580    -1.7620     1.8810 ha         1 NAR       0.136500
     27 H121         1.1810    -2.0920     4.2530 ha         1 NAR       0.143000
     28 H141        -0.2580     1.8550     5.1180 ha         1 NAR       0.143000
     29 H151        -0.7410     2.1930     2.7370 ha         1 NAR       0.136500
     30 HO3          0.5770     0.3740     6.6810 ho         1 NAR       0.428000
     31 H41          3.1540     1.2250    -4.4170 ho         1 NAR       0.433000
     32 H51         -2.4770     0.0900    -3.7510 ho         1 NAR       0.458000
@<TRIPOS>BOND
     1     1     2 ar  
     2     1     6 ar  
     3     1    21 1   
     4     2     3 ar  
     5     2    19 1   
     6     3     4 ar  
     7     3    22 1   
     8     4     5 ar  
     9     4    20 1   
    10     5     6 ar  
    11     5     7 1   
    12     6    10 1   
    13     7     8 1   
    14     7    11 2   
    15     8     9 1   
    16     8    23 1   
    17     8    24 1   
    18     9    10 1   
    19     9    12 1   
    20     9    25 1   
    21    12    13 ar  
    22    12    17 ar  
    23    13    14 ar  
    24    13    26 1   
    25    14    15 ar  
    26    14    27 1   
    27    15    16 ar  
    28    15    18 1   
    29    16    17 ar  
    30    16    28 1   
    31    17    29 1   
    32    18    30 1   
    33    19    31 1   
    34    20    32 1   
@<TRIPOS>SUBSTRUCTURE
     1 NAR         1 TEMP              0 ****  ****    0 ROOT
