@<TRIPOS>MOLECULE
NAS
   21    22     1     0     0
SMALL
bcc


@<TRIPOS>ATOM
      1 S            0.1320     0.0240     2.5630 s6         1 NAS       1.260100
      2 O1S         -0.6640     1.1440     3.0950 o          1 NAS      -0.692533
      3 O2S          1.5850     0.2140     2.7100 o          1 NAS      -0.692533
      4 O3S         -0.3380    -1.2920     3.0300 o          1 NAS      -0.692533
      5 C1           0.8210     0.0680    -0.1060 ca         1 NAS      -0.035000
      6 C2          -0.1950     0.0190     0.8050 ca         1 NAS      -0.220500
      7 C3          -1.5410    -0.0620     0.3790 ca         1 NAS      -0.025000
      8 C4          -1.8350    -0.0930    -0.9530 ca         1 NAS      -0.171000
      9 C5          -1.0830    -0.0840    -3.3130 ca         1 NAS      -0.127000
     10 C6          -0.0650    -0.0400    -4.2270 ca         1 NAS      -0.141000
     11 C7           1.2760     0.0420    -3.7970 ca         1 NAS      -0.160000
     12 C8           1.5720     0.0780    -2.4620 ca         1 NAS      -0.101000
     13 C9           0.5410     0.0340    -1.4940 ca         1 NAS      -0.060000
     14 C10         -0.8070    -0.0490    -1.9270 ca         1 NAS      -0.017000
     15 H3          -2.3400    -0.0950     1.1070 ha         1 NAS       0.143000
     16 H4          -2.8660    -0.1540    -1.2800 ha         1 NAS       0.112000
     17 H5          -2.1130    -0.1470    -3.6430 ha         1 NAS       0.117000
     18 H6          -0.2850    -0.0690    -5.2860 ha         1 NAS       0.111000
     19 H7           2.0710     0.0750    -4.5300 ha         1 NAS       0.113000
     20 H8           2.6020     0.1410    -2.1310 ha         1 NAS       0.126000
     21 H1           1.8510     0.1340     0.2200 ha         1 NAS       0.153000
@<TRIPOS>BOND
     1     1     2 1   
     2     1     3 1   
     3     1     4 1   
     4     1     6 1   
     5     5     6 ar  
     6     5    13 ar  
     7     5    21 1   
     8     6     7 ar  
     9     7     8 ar  
    10     7    15 1   
    11     8    14 ar  
    12     8    16 1   
    13     9    10 ar  
    14     9    14 ar  
    15     9    17 1   
    16    10    11 ar  
    17    10    18 1   
    18    11    12 ar  
    19    11    19 1   
    20    12    13 ar  
    21    12    20 1   
    22    13    14 ar  
@<TRIPOS>SUBSTRUCTURE
     1 NAS         1 TEMP              0 ****  ****    0 ROOT
