@<TRIPOS>MOLECULE
NAS
   21    22     1     0     0
SMALL
No Charge or Current Charge


@<TRIPOS>ATOM
      1 S            0.1560     0.0310     2.6480 s6         1 NAS       1.260100
      2 O1S         -0.9940     0.7600     3.2050 o          1 NAS      -0.692533
      3 O2S          1.4530     0.7260     2.6930 o          1 NAS      -0.692533
      4 O3S          0.1960    -1.4100     2.9360 o          1 NAS      -0.692533
      5 C1           0.8210     0.0090    -0.1140 ca         1 NAS      -0.017000
      6 C2          -0.2240     0.0240     0.8360 ca         1 NAS      -0.220500
      7 C3          -1.5610     0.0110     0.3880 ca         1 NAS      -0.007000
      8 C4          -1.8510    -0.0040    -0.9880 ca         1 NAS      -0.153000
      9 C5          -1.0980    -0.0270    -3.3090 ca         1 NAS      -0.109000
     10 C6          -0.0520    -0.0370    -4.2480 ca         1 NAS      -0.123000
     11 C7           1.2840    -0.0320    -3.8130 ca         1 NAS      -0.142000
     12 C8           1.5770    -0.0170    -2.4380 ca         1 NAS      -0.083000
     13 C9           0.5330    -0.0060    -1.4930 ca         1 NAS      -0.060000
     14 C10         -0.8090    -0.0110    -1.9310 ca         1 NAS      -0.017000
     15 H3          -2.3800     0.0100     1.1050 ha         1 NAS       0.125000
     16 H4          -2.8880    -0.0120    -1.3160 ha         1 NAS       0.094000
     17 H5          -2.1300    -0.0310    -3.6530 ha         1 NAS       0.099000
     18 H6          -0.2780    -0.0490    -5.3120 ha         1 NAS       0.093000
     19 H7           2.0920    -0.0410    -4.5400 ha         1 NAS       0.095000
     20 H8           2.6140    -0.0140    -2.1100 ha         1 NAS       0.108000
     21 H1           1.8570     0.0070     0.2170 ha         1 NAS       0.135000
@<TRIPOS>BOND
     1     1     2 1   
     2     1     3 1   
     3     1     4 1   
     4     1     6 1   
     5     5     6 ar  
     6     5    13 ar  
     7     5    21 1   
     8     6     7 ar  
     9     7     8 ar  
    10     7    15 1   
    11     8    14 ar  
    12     8    16 1   
    13     9    10 ar  
    14     9    14 ar  
    15     9    17 1   
    16    10    11 ar  
    17    10    18 1   
    18    11    12 ar  
    19    11    19 1   
    20    12    13 ar  
    21    12    20 1   
    22    13    14 ar  
@<TRIPOS>SUBSTRUCTURE
     1 NAS         1 TEMP              0 ****  ****    0 ROOT
