@<TRIPOS>MOLECULE
NAT
   36    37     1     0     0
SMALL
bcc


@<TRIPOS>ATOM
      1 C1           0.2060    -1.3790    -1.1490 ca         1 NAT      -0.143000
      2 C2           0.5840    -0.9260     0.1130 ca         1 NAT      -0.081300
      3 C3           1.7230    -1.4320     0.7180 ca         1 NAT      -0.141000
      4 C4           2.5000    -2.3900     0.0680 ca         1 NAT       0.136100
      5 C5           2.1230    -2.8430    -1.1920 ca         1 NAT      -0.213000
      6 C6           0.9770    -2.3350    -1.7900 ca         1 NAT      -0.087000
      7 C7          -0.2620     0.1000     0.8460 c6         1 NAT       0.224200
      8 N8          -1.5150    -0.5010     1.2850 ns         1 NAT      -0.490900
      9 C9          -2.6990    -0.3540     0.7100 cs         1 NAT       0.594400
     10 N10         -2.7810     0.6220    -0.2330 ns         1 NAT      -0.434100
     11 C11         -1.7750     1.5130    -0.5280 c2         1 NAT       0.132400
     12 C12         -0.5460     1.3180    -0.0010 ce         1 NAT      -0.288400
     13 O13          3.6020    -2.8370     0.7040 oh         1 NAT      -0.495100
     14 C14          0.5690     2.2210    -0.2910 c          1 NAT       0.679300
     15 O15          1.6430     1.8940     0.4190 os         1 NAT      -0.426900
     16 C16          2.8600     2.6170     0.2000 c3         1 NAT       0.147400
     17 C17          3.9330     1.9640     1.0370 c3         1 NAT      -0.099100
     18 C18         -2.2000     2.6220    -1.4380 c3         1 NAT      -0.070900
     19 O19          0.5560     3.1460    -1.0750 o          1 NAT      -0.555000
     20 S20         -4.0430    -1.2630     1.1140 s          1 NAT      -0.623400
     21 H1          -0.6800    -0.9890    -1.6360 ha         1 NAT       0.137000
     22 H3           2.0220    -1.0770     1.6980 ha         1 NAT       0.148000
     23 H5           2.7210    -3.5850    -1.7100 ha         1 NAT       0.133000
     24 H6           0.6910    -2.6910    -2.7710 ha         1 NAT       0.135000
     25 H7           0.2690     0.3960     1.7520 h1         1 NAT       0.085700
     26 HN8         -1.4490    -1.2190     1.9900 hn         1 NAT       0.355500
     27 HN10        -3.6920     0.7640    -0.6410 hn         1 NAT       0.361500
     28 HO13         4.0610    -3.4880     0.1620 ho         1 NAT       0.428000
     29 H161         2.7250     3.6640     0.4820 h1         1 NAT       0.048200
     30 H162         3.1210     2.5880    -0.8600 h1         1 NAT       0.048200
     31 H171         3.7010     2.0150     2.1010 hc         1 NAT       0.047700
     32 H172         4.0690     0.9180     0.7610 hc         1 NAT       0.047700
     33 H173         4.8780     2.4810     0.8750 hc         1 NAT       0.047700
     34 H181        -1.7450     2.5110    -2.4220 hc         1 NAT       0.070700
     35 H182        -3.2810     2.6210    -1.5640 hc         1 NAT       0.070700
     36 H183        -1.9050     3.5930    -1.0500 hc         1 NAT       0.070700
@<TRIPOS>BOND
     1     1     2 ar  
     2     1     6 ar  
     3     1    21 1   
     4     2     3 ar  
     5     2     7 1   
     6     3     4 ar  
     7     3    22 1   
     8     4     5 ar  
     9     4    13 1   
    10     5     6 ar  
    11     5    23 1   
    12     6    24 1   
    13     7     8 1   
    14     7    12 1   
    15     7    25 1   
    16     8     9 1   
    17     8    26 1   
    18     9    10 1   
    19     9    20 2   
    20    10    11 1   
    21    10    27 1   
    22    11    12 2   
    23    11    18 1   
    24    12    14 1   
    25    13    28 1   
    26    14    15 1   
    27    14    19 2   
    28    15    16 1   
    29    16    17 1   
    30    16    29 1   
    31    16    30 1   
    32    17    31 1   
    33    17    32 1   
    34    17    33 1   
    35    18    34 1   
    36    18    35 1   
    37    18    36 1   
@<TRIPOS>SUBSTRUCTURE
     1 NAT         1 TEMP              0 ****  ****    0 ROOT
