@<TRIPOS>MOLECULE
NAT
   36    37     1     0     0
SMALL
No Charge or Current Charge


@<TRIPOS>ATOM
      1 C1           0.2060    -1.4510    -1.1210 ca         1 NAT      -0.125000
      2 C2           0.5610    -0.9360     0.1430 ca         1 NAT      -0.081300
      3 C3           1.7510    -1.3790     0.7560 ca         1 NAT      -0.123000
      4 C4           2.5740    -2.3170     0.1140 ca         1 NAT       0.136100
      5 C5           2.2150    -2.8260    -1.1440 ca         1 NAT      -0.195000
      6 C6           1.0290    -2.3920    -1.7620 ca         1 NAT      -0.069000
      7 C7          -0.3300     0.0990     0.8430 c6         1 NAT       0.224200
      8 N8          -1.5840    -0.5610     1.2190 ns         1 NAT      -0.423900
      9 C9          -2.8190    -0.3410     0.6920 cs         1 NAT       0.460400
     10 N10         -2.8820     0.6880    -0.1960 ns         1 NAT      -0.367100
     11 C11         -1.8330     1.5490    -0.5360 c2         1 NAT       0.132400
     12 C12         -0.5910     1.3290    -0.0430 ce         1 NAT      -0.288400
     13 O13          3.7230    -2.7340     0.7160 oh         1 NAT      -0.534100
     14 C14          0.5850     2.2290    -0.3110 c          1 NAT       0.630300
     15 O15          1.7090     1.8260     0.3600 os         1 NAT      -0.450100
     16 C16          2.9220     2.5700     0.1730 c3         1 NAT       0.170600
     17 C17          4.0160     1.8730     0.9980 c3         1 NAT      -0.099100
     18 C18         -2.2920     2.6830    -1.4370 c3         1 NAT      -0.070900
     19 O19          0.5560     3.2150    -1.0340 o          1 NAT      -0.506000
     20 S20         -4.1480    -1.2490     1.1150 s          1 NAT      -0.623400
     21 H1          -0.7090    -1.1200    -1.6080 ha         1 NAT       0.119000
     22 H3           2.0440    -0.9890     1.7270 ha         1 NAT       0.130000
     23 H5           2.8460    -3.5540    -1.6480 ha         1 NAT       0.115000
     24 H6           0.7480    -2.7840    -2.7380 ha         1 NAT       0.117000
     25 H7           0.1560     0.4260     1.7750 h1         1 NAT       0.085700
     26 HN8         -1.5220    -1.3210     1.8860 hn         1 NAT       0.355500
     27 HN10        -3.7950     0.8650    -0.5960 hn         1 NAT       0.361500
     28 HO13         4.1620    -3.3850     0.1270 ho         1 NAT       0.467000
     29 H161         2.8050     3.6060     0.5160 h1         1 NAT       0.048200
     30 H162         3.2150     2.5820    -0.8860 h1         1 NAT       0.048200
     31 H171         3.7480     1.8600     2.0610 hc         1 NAT       0.047700
     32 H172         4.1540     0.8390     0.6580 hc         1 NAT       0.047700
     33 H173         4.9690     2.4020     0.8890 hc         1 NAT       0.047700
     34 H181        -1.7380     2.6800    -2.3820 hc         1 NAT       0.070700
     35 H182        -3.3580     2.6200    -1.6880 hc         1 NAT       0.070700
     36 H183        -2.1310     3.6550    -0.9550 hc         1 NAT       0.070700
@<TRIPOS>BOND
     1     1     2 ar  
     2     1     6 ar  
     3     1    21 1   
     4     2     3 ar  
     5     2     7 1   
     6     3     4 ar  
     7     3    22 1   
     8     4     5 ar  
     9     4    13 1   
    10     5     6 ar  
    11     5    23 1   
    12     6    24 1   
    13     7     8 1   
    14     7    12 1   
    15     7    25 1   
    16     8     9 1   
    17     8    26 1   
    18     9    10 1   
    19     9    20 2   
    20    10    11 1   
    21    10    27 1   
    22    11    12 2   
    23    11    18 1   
    24    12    14 1   
    25    13    28 1   
    26    14    15 1   
    27    14    19 2   
    28    15    16 1   
    29    16    17 1   
    30    16    29 1   
    31    16    30 1   
    32    17    31 1   
    33    17    32 1   
    34    17    33 1   
    35    18    34 1   
    36    18    35 1   
    37    18    36 1   
@<TRIPOS>SUBSTRUCTURE
     1 NAT         1 TEMP              0 ****  ****    0 ROOT
