@<TRIPOS>MOLECULE
NAU
   41    40     1     0     0
SMALL
No Charge or Current Charge


@<TRIPOS>ATOM
      1 C1           2.7560    14.8550     6.5500 c          1 NAU       0.717000
      2 O1A          3.3310    13.8020     6.7840 o          1 NAU      -0.746000
      3 O1B          2.1680    15.0780     5.5010 o          1 NAU      -0.746000
      4 C2           2.8400    15.9950     7.5830 c3         1 NAU      -0.190400
      5 C3           1.5250    16.1770     8.4100 c3         1 NAU      -0.023400
      6 C4           1.1910    15.1440     9.5400 c3         1 NAU       0.391000
      7 C5          -0.1660    15.3780    10.3260 c3         1 NAU       0.041700
      8 N2          -0.2750    14.4350    11.4810 ns         1 NAU      -0.519900
      9 C10         -0.6880    13.1260    11.3930 c          1 NAU       0.592100
     10 C11         -0.8370    12.4030    12.7230 c3         1 NAU      -0.180100
     11 O10         -0.8970    12.5870    10.3180 o          1 NAU      -0.575100
     12 O6          -0.7710    17.6720     9.6300 oh         1 NAU      -0.701000
     13 C6          -0.4520    16.8570    10.7800 c3         1 NAU       0.170300
     14 C7          -1.6060    16.9930    11.8510 c3         1 NAU       0.164300
     15 O7          -2.8380    16.4300    11.3390 oh         1 NAU      -0.691000
     16 C8          -1.8490    18.4700    12.3200 c3         1 NAU       0.133300
     17 O8          -0.6240    19.0680    12.7720 oh         1 NAU      -0.717000
     18 C9          -2.8600    18.5950    13.4950 c3         1 NAU       0.127600
     19 O9          -2.2550    18.1180    14.7130 oh         1 NAU      -0.728000
     20 O4A          2.2580    15.1060    10.4730 oh         1 NAU      -0.648500
     21 O4B          1.1460    13.8480     8.9760 oh         1 NAU      -0.648500
     22 HC21         3.6640    15.8320     8.2870 hc         1 NAU       0.024200
     23 HC22         2.9250    16.9450     7.0410 hc         1 NAU       0.024200
     24 HC31         1.6070    17.1640     8.8760 hc         1 NAU       0.044200
     25 HC32         0.6770    16.2320     7.7160 hc         1 NAU       0.044200
     26 HC5         -0.9790    15.1330     9.6290 h1         1 NAU       0.130700
     27 HN2         -0.1330    14.7930    12.4190 hn         1 NAU       0.295500
     28 H111        -1.1540    11.3610    12.6050 hc         1 NAU       0.054700
     29 H112         0.1050    12.4790    13.2790 hc         1 NAU       0.054700
     30 H113        -1.5280    12.9670    13.3600 hc         1 NAU       0.054700
     31 HO6         -0.8030    18.6030     9.9430 ho         1 NAU       0.496000
     32 HC6          0.4690    17.2280    11.2510 h1         1 NAU       0.060700
     33 HC7         -1.2950    16.4300    12.7420 h1         1 NAU       0.048700
     34 HO7         -3.3620    16.1200    12.1110 ho         1 NAU       0.498000
     35 HC8         -2.2520    19.0380    11.4710 h1         1 NAU       0.051700
     36 HO8         -0.6630    18.9350    13.7530 ho         1 NAU       0.496000
     37 HC91        -3.1470    19.6500    13.6040 h1         1 NAU       0.029700
     38 HC92        -3.7750    18.0330    13.2660 h1         1 NAU       0.029700
     39 HO9         -2.9380    18.1830    15.4230 ho         1 NAU       0.499000
     40 HO4A         1.8800    14.6900    11.2730 ho         1 NAU       0.420000
     41 HO4B         0.4340    13.3700     9.4620 ho         1 NAU       0.420000
@<TRIPOS>BOND
     1     1     2 1   
     2     1     3 1   
     3     1     4 1   
     4     4     5 1   
     5     4    22 1   
     6     4    23 1   
     7     5     6 1   
     8     5    24 1   
     9     5    25 1   
    10     6     7 1   
    11     6    20 1   
    12     6    21 1   
    13     7     8 1   
    14     7    13 1   
    15     7    26 1   
    16     8     9 1   
    17     8    27 1   
    18     9    10 1   
    19     9    11 2   
    20    10    28 1   
    21    10    29 1   
    22    10    30 1   
    23    12    13 1   
    24    12    31 1   
    25    13    14 1   
    26    13    32 1   
    27    14    15 1   
    28    14    16 1   
    29    14    33 1   
    30    15    34 1   
    31    16    17 1   
    32    16    18 1   
    33    16    35 1   
    34    17    36 1   
    35    18    19 1   
    36    18    37 1   
    37    18    38 1   
    38    19    39 1   
    39    20    40 1   
    40    21    41 1   
@<TRIPOS>SUBSTRUCTURE
     1 NAU         1 TEMP              0 ****  ****    0 ROOT
