@<TRIPOS>MOLECULE
NAU
   41    40     1     0     0
SMALL
abcg2


@<TRIPOS>ATOM
      1 C1           2.5510    14.8090     6.4980 c          1 NAU       0.717000
      2 O1A          3.6000    14.1530     6.2550 o          1 NAU      -0.746000
      3 O1B          1.4490    14.6720     5.9060 o          1 NAU      -0.746000
      4 C2           2.6640    15.9190     7.5610 c3         1 NAU      -0.190400
      5 C3           1.4120    16.1850     8.3990 c3         1 NAU      -0.023400
      6 C4           1.2840    15.2910     9.6260 c3         1 NAU       0.391000
      7 C5          -0.0930    15.4140    10.3490 c3         1 NAU       0.041700
      8 N2          -0.1460    14.4280    11.4180 ns         1 NAU      -0.519900
      9 C10         -1.0340    13.4010    11.4600 c          1 NAU       0.592100
     10 C11         -1.0710    12.6340    12.7590 c3         1 NAU      -0.180100
     11 O10         -1.7640    13.1090    10.5160 o          1 NAU      -0.575100
     12 O6          -0.8640    17.6020     9.7450 oh         1 NAU      -0.701000
     13 C6          -0.3960    16.8380    10.8610 c3         1 NAU       0.170300
     14 C7          -1.4220    16.8790    11.9930 c3         1 NAU       0.164300
     15 O7          -2.6410    16.3090    11.5280 oh         1 NAU      -0.691000
     16 C8          -1.6230    18.3090    12.5170 c3         1 NAU       0.133300
     17 O8          -0.4510    18.6020    13.2870 oh         1 NAU      -0.717000
     18 C9          -2.8980    18.4570    13.3280 c3         1 NAU       0.127600
     19 O9          -3.0250    17.3550    14.2340 oh         1 NAU      -0.728000
     20 O4A          2.3340    15.6690    10.5180 oh         1 NAU      -0.648500
     21 O4B          1.4570    13.9510     9.2130 oh         1 NAU      -0.648500
     22 HC21         3.5230    15.7170     8.1990 hc         1 NAU       0.024200
     23 HC22         2.9000    16.8340     7.0050 hc         1 NAU       0.024200
     24 HC31         1.4150    17.2150     8.7490 hc         1 NAU       0.044200
     25 HC32         0.5280    16.0570     7.7750 hc         1 NAU       0.044200
     26 HC5         -0.8680    15.1360     9.6370 h1         1 NAU       0.130700
     27 HN2          0.3650    14.6230    12.2650 hn         1 NAU       0.295500
     28 H111        -1.1340    11.5680    12.5450 hc         1 NAU       0.054700
     29 H112        -0.2090    12.8320    13.3940 hc         1 NAU       0.054700
     30 H113        -1.9760    12.9240    13.2990 hc         1 NAU       0.054700
     31 HO6         -0.3870    18.4390     9.7180 ho         1 NAU       0.496000
     32 HC6          0.5250    17.2740    11.2510 h1         1 NAU       0.060700
     33 HC7         -1.0330    16.2960    12.8320 h1         1 NAU       0.048700
     34 HO7         -3.1880    16.1460    12.3090 ho         1 NAU       0.498000
     35 HC8         -1.6980    19.0020    11.6730 h1         1 NAU       0.051700
     36 HO8         -0.4270    19.5520    13.4540 ho         1 NAU       0.496000
     37 HC91        -2.8610    19.4060    13.8730 h1         1 NAU       0.029700
     38 HC92        -3.7530    18.4900    12.6460 h1         1 NAU       0.029700
     39 HO9         -3.8430    17.4640    14.7330 ho         1 NAU       0.499000
     40 HO4A         2.4280    14.9910    11.2000 ho         1 NAU       0.420000
     41 HO4B         1.1970    13.3740     9.9450 ho         1 NAU       0.420000
@<TRIPOS>BOND
     1     1     2 1   
     2     1     3 1   
     3     1     4 1   
     4     4     5 1   
     5     4    22 1   
     6     4    23 1   
     7     5     6 1   
     8     5    24 1   
     9     5    25 1   
    10     6     7 1   
    11     6    20 1   
    12     6    21 1   
    13     7     8 1   
    14     7    13 1   
    15     7    26 1   
    16     8     9 1   
    17     8    27 1   
    18     9    10 1   
    19     9    11 2   
    20    10    28 1   
    21    10    29 1   
    22    10    30 1   
    23    12    13 1   
    24    12    31 1   
    25    13    14 1   
    26    13    32 1   
    27    14    15 1   
    28    14    16 1   
    29    14    33 1   
    30    15    34 1   
    31    16    17 1   
    32    16    18 1   
    33    16    35 1   
    34    17    36 1   
    35    18    19 1   
    36    18    37 1   
    37    18    38 1   
    38    19    39 1   
    39    20    40 1   
    40    21    41 1   
@<TRIPOS>SUBSTRUCTURE
     1 NAU         1 TEMP              0 ****  ****    0 ROOT
