@<TRIPOS>MOLECULE
NAV
   38    37     1     0     0
SMALL
No Charge or Current Charge


@<TRIPOS>ATOM
      1 C1           0.8930     0.8890     4.9490 c          1 NAV       0.718000
      2 O1A          0.5320     0.2990     5.9550 o          1 NAV      -0.740500
      3 O1B          1.1880     2.0740     4.9280 o          1 NAV      -0.740500
      4 C2           0.9020     0.1170     3.6190 c3         1 NAV      -0.202400
      5 C3          -0.4840     0.2200     2.9170 c3         1 NAV      -0.138400
      6 C4          -0.5300    -0.5690     1.5950 c          1 NAV       0.554100
      7 C5          -0.3730     0.2680     0.2910 c3         1 NAV      -0.027300
      8 N2           1.0420     0.7020     0.1440 ns         1 NAV      -0.493900
      9 C10          2.1180    -0.1250    -0.1050 c          1 NAV       0.608100
     10 C11          3.4560     0.5930    -0.2190 c3         1 NAV      -0.183100
     11 O10          2.0110    -1.3350    -0.2200 o          1 NAV      -0.606100
     12 O6          -2.3680    -0.5940    -0.8060 oh         1 NAV      -0.698000
     13 C6          -0.9490    -0.4530    -0.9670 c3         1 NAV       0.149300
     14 C7          -0.7430     0.3410    -2.2960 c3         1 NAV       0.101300
     15 O7          -1.6440     1.4790    -2.2770 oh         1 NAV      -0.726000
     16 C8          -1.0000    -0.5270    -3.5710 c3         1 NAV       0.142300
     17 O8          -0.0850    -1.6320    -3.6250 oh         1 NAV      -0.686000
     18 C9          -0.8270     0.2570    -4.9000 c3         1 NAV       0.124600
     19 O9          -0.8320    -0.6650    -6.0070 oh         1 NAV      -0.705000
     20 O4          -0.6870    -1.7870     1.5980 o          1 NAV      -0.512100
     21 HC21         1.0670    -0.9520     3.8040 hc         1 NAV       0.035200
     22 HC22         1.6280     0.5620     2.9290 hc         1 NAV       0.035200
     23 HC31        -0.6780     1.2800     2.7180 hc         1 NAV       0.058200
     24 HC32        -1.2490    -0.1800     3.5930 hc         1 NAV       0.058200
     25 HC5         -0.9640     1.1810     0.4410 h1         1 NAV       0.065700
     26 HN2          1.2530     1.6910     0.2300 hn         1 NAV       0.310500
     27 H111         4.2880    -0.0920    -0.4160 hc         1 NAV       0.054700
     28 H112         3.3800     1.3690    -0.9890 hc         1 NAV       0.054700
     29 H113         3.6230     1.1820     0.6900 hc         1 NAV       0.054700
     30 HO6         -2.7060     0.2130    -1.2720 ho         1 NAV       0.496000
     31 HC6         -0.4600    -1.4350    -1.0590 h1         1 NAV       0.129700
     32 HC7          0.3010     0.6810    -2.3410 h1         1 NAV       0.075700
     33 HO7         -1.1800     2.2390    -2.7030 ho         1 NAV       0.502000
     34 HC8         -2.0340    -0.8980    -3.5350 h1         1 NAV       0.089700
     35 HO8         -0.0250    -1.8150    -4.5960 ho         1 NAV       0.505000
     36 HC91        -1.6460     0.9820    -5.0030 h1         1 NAV       0.021200
     37 HC92         0.1180     0.8160    -4.8760 h1         1 NAV       0.021200
     38 HO9         -0.8280    -0.1270    -6.8340 ho         1 NAV       0.494000
@<TRIPOS>BOND
     1     1     2 1   
     2     1     3 1   
     3     1     4 1   
     4     4     5 1   
     5     4    21 1   
     6     4    22 1   
     7     5     6 1   
     8     5    23 1   
     9     5    24 1   
    10     6     7 1   
    11     6    20 2   
    12     7     8 1   
    13     7    13 1   
    14     7    25 1   
    15     8     9 1   
    16     8    26 1   
    17     9    10 1   
    18     9    11 2   
    19    10    27 1   
    20    10    28 1   
    21    10    29 1   
    22    12    13 1   
    23    12    30 1   
    24    13    14 1   
    25    13    31 1   
    26    14    15 1   
    27    14    16 1   
    28    14    32 1   
    29    15    33 1   
    30    16    17 1   
    31    16    18 1   
    32    16    34 1   
    33    17    35 1   
    34    18    19 1   
    35    18    36 1   
    36    18    37 1   
    37    19    38 1   
@<TRIPOS>SUBSTRUCTURE
     1 NAV         1 TEMP              0 ****  ****    0 ROOT
