@<TRIPOS>MOLECULE
NAV
   38    37     1     0     0
SMALL
abcg2


@<TRIPOS>ATOM
      1 C1          -1.1080     0.2230     5.0170 c          1 NAV       0.718000
      2 O1A         -1.4570    -0.5520     5.9310 o          1 NAV      -0.740500
      3 O1B         -1.3170     1.4510     4.9680 o          1 NAV      -0.740500
      4 C2          -0.3210    -0.4170     3.8590 c3         1 NAV      -0.202400
      5 C3          -0.2010     0.4520     2.6240 c3         1 NAV      -0.138400
      6 C4           0.6260    -0.1220     1.5120 c          1 NAV       0.554100
      7 C5           0.5310     0.5970     0.1590 c3         1 NAV      -0.027300
      8 N2           1.8450     0.9220    -0.3500 ns         1 NAV      -0.493900
      9 C10          2.7070     0.1180    -1.0060 c          1 NAV       0.608100
     10 C11          4.0550     0.7400    -1.2830 c3         1 NAV      -0.183100
     11 O10          2.4440    -1.0140    -1.3810 o          1 NAV      -0.606100
     12 O6          -1.6020    -0.4650    -0.1720 oh         1 NAV      -0.698000
     13 C6          -0.3540    -0.2350    -0.7890 c3         1 NAV       0.149300
     14 C7          -0.5060     0.4280    -2.1620 c3         1 NAV       0.101300
     15 O7          -1.1520     1.6790    -2.0550 oh         1 NAV      -0.726000
     16 C8          -1.2090    -0.4930    -3.1740 c3         1 NAV       0.142300
     17 O8          -0.6070    -1.7660    -3.2090 oh         1 NAV      -0.686000
     18 C9          -1.2450     0.1470    -4.5540 c3         1 NAV       0.124600
     19 O9          -1.9870    -0.6820    -5.4160 oh         1 NAV      -0.705000
     20 O4           1.3610    -1.0710     1.6460 o          1 NAV      -0.512100
     21 HC21        -0.7860    -1.3720     3.6000 hc         1 NAV       0.035200
     22 HC22         0.6760    -0.6730     4.2340 hc         1 NAV       0.035200
     23 HC31         0.2550     1.4190     2.8700 hc         1 NAV       0.058200
     24 HC32        -1.1840     0.7160     2.2250 hc         1 NAV       0.058200
     25 HC5          0.0340     1.5600     0.3150 h1         1 NAV       0.065700
     26 HN2          2.1860     1.8310    -0.0850 hn         1 NAV       0.310500
     27 H111         4.2820     0.6510    -2.3440 hc         1 NAV       0.054700
     28 H112         4.1290     1.7880    -0.9990 hc         1 NAV       0.054700
     29 H113         4.8210     0.1870    -0.7390 hc         1 NAV       0.054700
     30 HO6         -2.0480     0.3760    -0.0210 ho         1 NAV       0.496000
     31 HC6          0.0950    -1.2170    -0.9190 h1         1 NAV       0.129700
     32 HC7          0.4950     0.6460    -2.5500 h1         1 NAV       0.075700
     33 HO7         -2.1050     1.5480    -2.0190 ho         1 NAV       0.502000
     34 HC8         -2.2390    -0.6650    -2.8400 h1         1 NAV       0.089700
     35 HO8          0.3220    -1.6630    -3.4460 ho         1 NAV       0.505000
     36 HC91        -1.6870     1.1470    -4.4790 h1         1 NAV       0.021200
     37 HC92        -0.2120     0.2830    -4.9080 h1         1 NAV       0.021200
     38 HO9         -2.0300    -0.2540    -6.2750 ho         1 NAV       0.494000
@<TRIPOS>BOND
     1     1     2 1   
     2     1     3 1   
     3     1     4 1   
     4     4     5 1   
     5     4    21 1   
     6     4    22 1   
     7     5     6 1   
     8     5    23 1   
     9     5    24 1   
    10     6     7 1   
    11     6    20 2   
    12     7     8 1   
    13     7    13 1   
    14     7    25 1   
    15     8     9 1   
    16     8    26 1   
    17     9    10 1   
    18     9    11 2   
    19    10    27 1   
    20    10    28 1   
    21    10    29 1   
    22    12    13 1   
    23    12    30 1   
    24    13    14 1   
    25    13    31 1   
    26    14    15 1   
    27    14    16 1   
    28    14    32 1   
    29    15    33 1   
    30    16    17 1   
    31    16    18 1   
    32    16    34 1   
    33    17    35 1   
    34    18    19 1   
    35    18    36 1   
    36    18    37 1   
    37    19    38 1   
@<TRIPOS>SUBSTRUCTURE
     1 NAV         1 TEMP              0 ****  ****    0 ROOT
