@<TRIPOS>MOLECULE
NAX
   74    78     1     0     0
SMALL
No Charge or Current Charge


@<TRIPOS>ATOM
      1 PA           2.8370     1.6320    -1.0540 p5         1 NAX       1.452800
      2 O1A          2.7810     2.0530    -2.4880 o          1 NAX      -0.851000
      3 O2A          3.6350     2.5790    -0.2170 o          1 NAX      -0.851000
      4 O5B          3.5090     0.1650    -0.9190 os         1 NAX      -0.555400
      5 C5B          3.6940    -0.7160    -2.0460 c3         1 NAX       0.212600
      6 C4B          2.4920    -1.6890    -2.2820 c5         1 NAX       0.157300
      7 O4B          1.2070    -1.0320    -2.1160 os         1 NAX      -0.411000
      8 C3B          2.4750    -2.2830    -3.7340 c5         1 NAX       0.098300
      9 O3B          1.8290    -3.5620    -3.8180 oh         1 NAX      -0.712000
     10 C2B          1.6320    -1.1910    -4.4530 c5         1 NAX       0.067300
     11 O2B          1.1550    -1.6360    -5.7400 oh         1 NAX      -0.707000
     12 C1B          0.5110    -1.0090    -3.3760 c5         1 NAX       0.323300
     13 N9A         -0.3380     0.1790    -3.4420 na         1 NAX      -0.294300
     14 C8A          0.0090     1.4140    -4.0030 cc         1 NAX       0.468700
     15 N7A         -1.0360     2.2700    -3.9840 nd         1 NAX      -0.568100
     16 C5A         -2.0430     1.5350    -3.3520 ca         1 NAX      -0.078600
     17 C6A         -3.3620     1.9140    -3.0220 ca         1 NAX       0.425900
     18 N6A         -3.8730     3.1420    -3.3070 nv         1 NAX      -1.073900
     19 N1A         -4.1930     1.0650    -2.3950 nb         1 NAX      -0.326000
     20 C2A         -3.6890    -0.1610    -2.1120 ca         1 NAX       0.142900
     21 N3A         -2.4430    -0.6100    -2.3940 nb         1 NAX      -0.207000
     22 C4A         -1.6320     0.2700    -3.0160 ca         1 NAX       0.104500
     23 O3           1.4160     1.2900    -0.4700 os         1 NAX      -0.680800
     24 PN           0.6290     2.5380     0.0870 p5         1 NAX       1.449800
     25 O1N          0.7780     3.7800    -0.7310 o          1 NAX      -0.842000
     26 O2N          0.8830     2.7970     1.5370 o          1 NAX      -0.842000
     27 O5D         -0.8700     1.9740    -0.1310 os         1 NAX      -0.554400
     28 C5D         -1.5260     1.0820     0.7850 c3         1 NAX       0.222600
     29 C4D         -0.8560    -0.3280     0.8230 c5         1 NAX       0.152300
     30 O4D          0.1130    -0.3730     1.9120 os         1 NAX      -0.410000
     31 C3D         -1.8900    -1.4780     1.1280 c5         1 NAX       0.096300
     32 O3D         -1.5140    -2.7500     0.5850 oh         1 NAX      -0.716000
     33 C2D         -1.8200    -1.5260     2.6760 c5         1 NAX       0.069300
     34 O2D         -2.4210    -2.7350     3.1990 oh         1 NAX      -0.722000
     35 C1D         -0.2610    -1.4210     2.8220 c5         1 NAX       0.473500
     36 N1N          0.0440    -1.0720     4.2350 nh         1 NAX      -0.674400
     37 C2N         -0.1530     0.2630     4.6270 c2         1 NAX       0.144000
     38 C3N         -0.0490     0.6780     5.9110 ce         1 NAX      -0.326400
     39 C7N         -0.2520     2.1160     6.2560 c          1 NAX       0.649300
     40 O7N         -0.8360     2.9000     5.5300 o          1 NAX      -0.592100
     41 N7N          0.3320     2.5520     7.3900 nt         1 NAX      -0.618000
     42 C4N          0.3750    -0.3010     7.0190 c6         1 NAX       0.000800
     43 C5N          0.0260    -1.7530     6.6240 c6         1 NAX      -0.115400
     44 C6N          0.4960    -2.0850     5.1880 c6         1 NAX       0.463500
     45 O6N          1.9110    -2.1060     5.1010 oh         1 NAX      -0.646000
     46 H51A         3.8780    -0.1400    -2.9610 h1         1 NAX       0.012200
     47 H52A         4.5920    -1.3260    -1.8860 h1         1 NAX       0.012200
     48 H4B          2.5690    -2.4910    -1.5350 h1         1 NAX       0.097700
     49 H3B          3.4890    -2.3450    -4.1530 h1         1 NAX       0.050700
     50 HO3A         1.3590    -3.5480    -4.6880 ho         1 NAX       0.500000
     51 H2B          2.2160    -0.2650    -4.5580 h1         1 NAX       0.073700
     52 HO2A         1.8570    -1.4390    -6.4060 ho         1 NAX       0.498000
     53 H1B         -0.1700    -1.8680    -3.4200 h2         1 NAX       0.093700
     54 H8A          0.9940     1.6190    -4.4100 h5         1 NAX       0.158800
     55 H61A        -4.6980     3.4430    -2.7950 hn         1 NAX       0.493000
     56 H62A        -3.2080     3.8660    -3.5670 hn         1 NAX       0.493000
     57 H2A         -4.3550    -0.8580    -1.6060 h5         1 NAX       0.022100
     58 H5'1        -2.5690     0.9630     0.4630 h1         1 NAX       0.010700
     59 H5'2        -1.5540     1.5090     1.7950 h1         1 NAX       0.010700
     60 H4D         -0.3550    -0.5140    -0.1350 h1         1 NAX       0.089700
     61 H3D         -2.9000    -1.2130     0.7860 h1         1 NAX       0.049700
     62 HO3N        -1.8730    -3.3990     1.2390 ho         1 NAX       0.495000
     63 H2D         -2.3090    -0.6380     3.1050 h1         1 NAX       0.074700
     64 HO2N        -2.4310    -2.6490     4.1820 ho         1 NAX       0.498000
     65 H1D          0.2250    -2.3600     2.5220 h2         1 NAX       0.052700
     66 H2N         -0.4080     0.9760     3.8340 h4         1 NAX       0.247000
     67 H71N         0.2480     3.5240     7.6470 hn         1 NAX       0.290500
     68 H72N         0.8470     1.9060     7.9680 hn         1 NAX       0.290500
     69 H41N         1.4550    -0.2100     7.1980 hc         1 NAX       0.033200
     70 H42N        -0.1270    -0.0590     7.9660 hc         1 NAX       0.033200
     71 H51N        -1.0620    -1.8880     6.6780 hc         1 NAX       0.033200
     72 H52N         0.4600    -2.4600     7.3440 hc         1 NAX       0.033200
     73 H6N          0.0940    -3.0640     4.8870 h2         1 NAX       0.020700
     74 HO6N         2.2000    -2.7530     5.7750 ho         1 NAX       0.427000
@<TRIPOS>BOND
     1     1     2 1   
     2     1     3 1   
     3     1     4 1   
     4     1    23 1   
     5     4     5 1   
     6     5     6 1   
     7     5    46 1   
     8     5    47 1   
     9     6     7 1   
    10     6     8 1   
    11     6    48 1   
    12     7    12 1   
    13     8     9 1   
    14     8    10 1   
    15     8    49 1   
    16     9    50 1   
    17    10    11 1   
    18    10    12 1   
    19    10    51 1   
    20    11    52 1   
    21    12    13 1   
    22    12    53 1   
    23    13    14 1   
    24    13    22 1   
    25    14    15 2   
    26    14    54 1   
    27    15    16 1   
    28    16    17 ar  
    29    16    22 ar  
    30    17    18 1   
    31    17    19 ar  
    32    18    55 1   
    33    18    56 1   
    34    19    20 ar  
    35    20    21 ar  
    36    20    57 1   
    37    21    22 ar  
    38    23    24 1   
    39    24    25 1   
    40    24    26 1   
    41    24    27 1   
    42    27    28 1   
    43    28    29 1   
    44    28    58 1   
    45    28    59 1   
    46    29    30 1   
    47    29    31 1   
    48    29    60 1   
    49    30    35 1   
    50    31    32 1   
    51    31    33 1   
    52    31    61 1   
    53    32    62 1   
    54    33    34 1   
    55    33    35 1   
    56    33    63 1   
    57    34    64 1   
    58    35    36 1   
    59    35    65 1   
    60    36    37 1   
    61    36    44 1   
    62    37    38 2   
    63    37    66 1   
    64    38    39 1   
    65    38    42 1   
    66    39    40 2   
    67    39    41 1   
    68    41    67 1   
    69    41    68 1   
    70    42    43 1   
    71    42    69 1   
    72    42    70 1   
    73    43    44 1   
    74    43    71 1   
    75    43    72 1   
    76    44    45 1   
    77    44    73 1   
    78    45    74 1   
@<TRIPOS>SUBSTRUCTURE
     1 NAX         1 TEMP              0 ****  ****    0 ROOT
