@<TRIPOS>MOLECULE
NAX
   74    78     1     0     0
SMALL
bcc


@<TRIPOS>ATOM
      1 PA           1.1230     1.8060    -0.7950 p5         1 NAX       1.452800
      2 O1A          0.3860     2.4450    -1.9350 o          1 NAX      -0.851000
      3 O2A          2.2160     2.5530    -0.0990 o          1 NAX      -0.851000
      4 O5B          1.6810     0.3320    -1.2750 os         1 NAX      -0.532200
      5 C5B          2.6670     0.3300    -2.2800 c3         1 NAX       0.189400
      6 C4B          2.6020    -0.9820    -3.0400 c5         1 NAX       0.134100
      7 O4B          1.2820    -1.2200    -3.5400 os         1 NAX      -0.364600
      8 C3B          3.5060    -0.9620    -4.2630 c5         1 NAX       0.075100
      9 O3B          3.8660    -2.2780    -4.5880 oh         1 NAX      -0.589800
     10 C2B          2.5540    -0.3770    -5.3110 c5         1 NAX       0.044100
     11 O2B          2.8760    -0.6770    -6.6360 oh         1 NAX      -0.584800
     12 C1B          1.2380    -1.0540    -4.9260 c5         1 NAX       0.270800
     13 N9A          0.0630    -0.2920    -5.2770 na         1 NAX      -0.265000
     14 C8A         -0.4300     0.8200    -4.6440 cc         1 NAX       0.468700
     15 N7A         -1.4980     1.2980    -5.2150 nd         1 NAX      -0.568100
     16 C5A         -1.7250     0.4640    -6.2780 ca         1 NAX      -0.209200
     17 C6A         -2.7180     0.4300    -7.2720 ca         1 NAX       0.754200
     18 N6A         -3.6920     1.3420    -7.3520 nv         1 NAX      -0.963500
     19 N1A         -2.6640    -0.5490    -8.1810 nb         1 NAX      -0.852000
     20 C2A         -1.6830    -1.4460    -8.1090 ca         1 NAX       0.668900
     21 N3A         -0.6990    -1.5160    -7.2310 nb         1 NAX      -0.733000
     22 C4A         -0.7650    -0.5350    -6.3340 ca         1 NAX       0.432800
     23 O3           0.0520     1.1920     0.2780 os         1 NAX      -0.680800
     24 PN          -0.2620     1.9100     1.7300 p5         1 NAX       1.449800
     25 O1N         -0.5500     3.3660     1.5300 o          1 NAX      -0.842000
     26 O2N          0.7220     1.4580     2.7570 o          1 NAX      -0.842000
     27 O5D         -1.6810     1.0960     1.9270 os         1 NAX      -0.531200
     28 C5D         -2.4450     1.4300     3.0640 c3         1 NAX       0.199400
     29 C4D         -3.0620     0.1730     3.6450 c5         1 NAX       0.129100
     30 O4D         -2.0490    -0.7510     4.0340 os         1 NAX      -0.363600
     31 C3D         -3.8790     0.4650     4.8990 c5         1 NAX       0.073100
     32 O3D         -4.9120    -0.4830     5.0030 oh         1 NAX      -0.593800
     33 C2D         -2.8280     0.2530     5.9900 c5         1 NAX       0.046100
     34 O2D         -3.3460    -0.0670     7.2500 oh         1 NAX      -0.599800
     35 C1D         -2.0500    -0.9390     5.4330 c5         1 NAX       0.450300
     36 N1N         -0.7240    -1.1030     5.9480 nh         1 NAX      -0.674400
     37 C2N          0.2150    -0.1250     5.7900 c2         1 NAX       0.194000
     38 C3N          1.5190    -0.2580     6.1020 ce         1 NAX      -0.326400
     39 C7N          2.3960     0.9050     5.8970 c          1 NAX       0.716300
     40 O7N          1.9830     2.0560     5.7880 o          1 NAX      -0.592100
     41 N7N          3.7230     0.6300     5.8690 nt         1 NAX      -0.685000
     42 C4N          2.0350    -1.5670     6.6320 c6         1 NAX       0.000800
     43 C5N          0.8860    -2.3240     7.2850 c6         1 NAX      -0.115400
     44 C6N         -0.3120    -2.4170     6.3550 c6         1 NAX       0.440300
     45 O6N         -0.0240    -3.1580     5.1890 oh         1 NAX      -0.583800
     46 H51A         2.5380     1.1700    -2.9750 h1         1 NAX       0.012200
     47 H52A         3.6690     0.4260    -1.8470 h1         1 NAX       0.012200
     48 H4B          2.8590    -1.8050    -2.3660 h1         1 NAX       0.097700
     49 H3B          4.3870    -0.3230    -4.1110 h1         1 NAX       0.050700
     50 HO3A         4.1520    -2.2880    -5.5090 ho         1 NAX       0.401000
     51 H2B          2.4660     0.7060    -5.1520 h1         1 NAX       0.073700
     52 HO2A         3.5220    -0.0360    -6.9490 ho         1 NAX       0.399000
     53 H1B          1.1440    -2.0140    -5.4460 h2         1 NAX       0.093700
     54 H8A          0.0230     1.2290    -3.7490 h5         1 NAX       0.158800
     55 H61A        -4.4510     1.2020    -7.9980 hn         1 NAX       0.437800
     56 H62A        -3.8300     2.0050    -6.6090 hn         1 NAX       0.437800
     57 H2A         -1.6980    -2.2160    -8.8730 h5         1 NAX       0.022100
     58 H5'1        -3.2520     2.1190     2.7910 h1         1 NAX       0.010700
     59 H5'2        -1.8430     1.9350     3.8300 h1         1 NAX       0.010700
     60 H4D         -3.6930    -0.2960     2.8820 h1         1 NAX       0.089700
     61 H3D         -4.2750     1.4890     4.9020 h1         1 NAX       0.049700
     62 HO3N        -5.1770    -0.5270     5.9290 ho         1 NAX       0.396000
     63 H2D         -2.1840     1.1410     6.0380 h1         1 NAX       0.074700
     64 HO2N        -3.5980     0.7480     7.6960 ho         1 NAX       0.399000
     65 H1D         -2.5910    -1.8570     5.6950 h2         1 NAX       0.052700
     66 H2N         -0.1340     0.8090     5.3710 h4         1 NAX       0.197000
     67 H71N         4.3680     1.3670     5.6350 hn         1 NAX       0.290500
     68 H72N         4.0650    -0.3100     5.7660 hn         1 NAX       0.290500
     69 H41N         2.4780    -2.1760     5.8360 hc         1 NAX       0.033200
     70 H42N         2.8230    -1.4100     7.3720 hc         1 NAX       0.033200
     71 H51N         0.5760    -1.8120     8.2000 hc         1 NAX       0.033200
     72 H52N         1.1940    -3.3300     7.5770 hc         1 NAX       0.033200
     73 H6N         -1.1490    -2.8740     6.8970 h2         1 NAX       0.020700
     74 HO6N         0.1940    -4.0590     5.4540 ho         1 NAX       0.388000
@<TRIPOS>BOND
     1     1     2 1   
     2     1     3 1   
     3     1     4 1   
     4     1    23 1   
     5     4     5 1   
     6     5     6 1   
     7     5    46 1   
     8     5    47 1   
     9     6     7 1   
    10     6     8 1   
    11     6    48 1   
    12     7    12 1   
    13     8     9 1   
    14     8    10 1   
    15     8    49 1   
    16     9    50 1   
    17    10    11 1   
    18    10    12 1   
    19    10    51 1   
    20    11    52 1   
    21    12    13 1   
    22    12    53 1   
    23    13    14 1   
    24    13    22 1   
    25    14    15 2   
    26    14    54 1   
    27    15    16 1   
    28    16    17 ar  
    29    16    22 ar  
    30    17    18 1   
    31    17    19 ar  
    32    18    55 1   
    33    18    56 1   
    34    19    20 ar  
    35    20    21 ar  
    36    20    57 1   
    37    21    22 ar  
    38    23    24 1   
    39    24    25 1   
    40    24    26 1   
    41    24    27 1   
    42    27    28 1   
    43    28    29 1   
    44    28    58 1   
    45    28    59 1   
    46    29    30 1   
    47    29    31 1   
    48    29    60 1   
    49    30    35 1   
    50    31    32 1   
    51    31    33 1   
    52    31    61 1   
    53    32    62 1   
    54    33    34 1   
    55    33    35 1   
    56    33    63 1   
    57    34    64 1   
    58    35    36 1   
    59    35    65 1   
    60    36    37 1   
    61    36    44 1   
    62    37    38 2   
    63    37    66 1   
    64    38    39 1   
    65    38    42 1   
    66    39    40 2   
    67    39    41 1   
    68    41    67 1   
    69    41    68 1   
    70    42    43 1   
    71    42    69 1   
    72    42    70 1   
    73    43    44 1   
    74    43    71 1   
    75    43    72 1   
    76    44    45 1   
    77    44    73 1   
    78    45    74 1   
@<TRIPOS>SUBSTRUCTURE
     1 NAX         1 TEMP              0 ****  ****    0 ROOT
