@<TRIPOS>MOLECULE
NAY
   38    37     1     0     0
SMALL
bcc


@<TRIPOS>ATOM
      1 C1          -0.2420     0.2270     5.1540 c          1 NAY       0.858600
      2 O1A         -0.7550    -0.2800     6.1610 o          1 NAY      -0.804800
      3 O1B          0.5750     1.1610     5.0830 o          1 NAY      -0.804800
      4 C2          -0.6800    -0.3890     3.7910 c          1 NAY       0.427100
      5 O2          -1.4170    -1.3480     3.7610 o          1 NAY      -0.560100
      6 C3          -0.1460     0.2550     2.5410 c3         1 NAY      -0.190400
      7 C4          -0.6370    -0.3810     1.2520 c3         1 NAY      -0.079400
      8 C5          -0.2150     0.4190     0.0150 c3         1 NAY       0.096700
      9 N            1.2050     0.7280    -0.0070 ns         1 NAY      -0.566900
     10 C10          2.2070    -0.1670    -0.0360 c          1 NAY       0.666100
     11 C11          3.5970     0.4210    -0.0050 c3         1 NAY      -0.181100
     12 O10          2.0290    -1.3780    -0.0830 o          1 NAY      -0.609100
     13 O6          -2.0680    -0.4930    -1.2700 oh         1 NAY      -0.583800
     14 C6          -0.6760    -0.2480    -1.2960 c3         1 NAY       0.106100
     15 C7          -0.2870     0.5730    -2.5320 c3         1 NAY       0.078100
     16 O7          -0.9150     1.8390    -2.5280 oh         1 NAY      -0.602800
     17 C8          -0.5550    -0.1870    -3.8430 c3         1 NAY       0.116100
     18 O8           0.0620    -1.4540    -3.8280 oh         1 NAY      -0.563800
     19 C9          -0.1200     0.6330    -5.0480 c3         1 NAY       0.101400
     20 O9          -0.4340    -0.0820    -6.2210 oh         1 NAY      -0.584800
     21 HC31         0.9460     0.2390     2.6060 hc         1 NAY       0.059200
     22 HC32        -0.4020     1.3200     2.5760 hc         1 NAY       0.059200
     23 HC41        -1.7270    -0.4280     1.2640 hc         1 NAY       0.062700
     24 HC42        -0.2840    -1.4100     1.1730 hc         1 NAY       0.062700
     25 HC5         -0.7030     1.3970     0.0780 h1         1 NAY       0.043700
     26 HN           1.4530     1.7020     0.0320 hn         1 NAY       0.312500
     27 H111         4.1190     0.0640     0.8830 hc         1 NAY       0.054700
     28 H112         4.1560     0.0710    -0.8720 hc         1 NAY       0.054700
     29 H113         3.6170     1.5090     0.0010 hc         1 NAY       0.054700
     30 HO6         -2.5260     0.3100    -1.0000 ho         1 NAY       0.393000
     31 HC6         -0.2030    -1.2270    -1.3720 h1         1 NAY       0.117700
     32 HC7          0.7880     0.7780    -2.4810 h1         1 NAY       0.072700
     33 HO7         -1.8450     1.7280    -2.7540 ho         1 NAY       0.401000
     34 HC8         -1.6310    -0.3840    -3.9250 h1         1 NAY       0.091700
     35 HO8          1.0180    -1.3290    -3.8210 ho         1 NAY       0.398000
     36 HC91        -0.6210     1.6060    -5.0240 h1         1 NAY       0.023200
     37 HC92         0.9610     0.8290    -4.9730 h1         1 NAY       0.023200
     38 HO9         -0.2370     0.4840    -6.9730 ho         1 NAY       0.396000
@<TRIPOS>BOND
     1     1     2 1   
     2     1     3 1   
     3     1     4 1   
     4     4     5 2   
     5     4     6 1   
     6     6     7 1   
     7     6    21 1   
     8     6    22 1   
     9     7     8 1   
    10     7    23 1   
    11     7    24 1   
    12     8     9 1   
    13     8    14 1   
    14     8    25 1   
    15     9    10 1   
    16     9    26 1   
    17    10    11 1   
    18    10    12 2   
    19    11    27 1   
    20    11    28 1   
    21    11    29 1   
    22    13    14 1   
    23    13    30 1   
    24    14    15 1   
    25    14    31 1   
    26    15    16 1   
    27    15    17 1   
    28    15    32 1   
    29    16    33 1   
    30    17    18 1   
    31    17    19 1   
    32    17    34 1   
    33    18    35 1   
    34    19    20 1   
    35    19    36 1   
    36    19    37 1   
    37    20    38 1   
@<TRIPOS>SUBSTRUCTURE
     1 NAY         1 TEMP              0 ****  ****    0 ROOT
