@<TRIPOS>MOLECULE
NAY
   38    37     1     0     0
SMALL
No Charge or Current Charge


@<TRIPOS>ATOM
      1 C1          -1.5070     0.3470     4.7580 c          1 NAY       0.648000
      2 O1A         -2.4190    -0.3530     5.1930 o          1 NAY      -0.699500
      3 O1B         -1.4700     1.5660     4.9100 o          1 NAY      -0.699500
      4 C2          -0.2900    -0.3750     3.9690 c          1 NAY       0.427100
      5 O2           0.1840    -1.4560     4.3310 o          1 NAY      -0.560100
      6 C3           0.2670     0.3370     2.7180 c3         1 NAY      -0.190400
      7 C4          -0.3790    -0.2200     1.4210 c3         1 NAY      -0.079400
      8 C5           0.0370     0.5330     0.1230 c3         1 NAY       0.096700
      9 N            1.5030     0.6310     0.0070 ns         1 NAY      -0.499900
     10 C10          2.3780    -0.4190    -0.1790 c          1 NAY       0.599100
     11 C11          3.8440    -0.0120    -0.2490 c3         1 NAY      -0.181100
     12 O10          2.0170    -1.5810    -0.2810 o          1 NAY      -0.609100
     13 O6          -2.0790     0.0050    -1.0480 oh         1 NAY      -0.706000
     14 C6          -0.6340    -0.0430    -1.1740 c3         1 NAY       0.129300
     15 C7          -0.2480     0.7370    -2.4710 c3         1 NAY       0.101300
     16 O7          -0.9410     1.9970    -2.4250 oh         1 NAY      -0.725000
     17 C8          -0.6180    -0.0300    -3.7810 c3         1 NAY       0.139300
     18 O8           0.0900    -1.2770    -3.8570 oh         1 NAY      -0.686000
     19 C9          -0.2730     0.7600    -5.0720 c3         1 NAY       0.124600
     20 O9          -0.4150    -0.1020    -6.2190 oh         1 NAY      -0.707000
     21 HC31         1.3520     0.1890     2.6760 hc         1 NAY       0.059200
     22 HC32         0.0290     1.4060     2.7680 hc         1 NAY       0.059200
     23 HC41        -1.4690    -0.1630     1.5320 hc         1 NAY       0.062700
     24 HC42        -0.1330    -1.2840     1.3260 hc         1 NAY       0.062700
     25 HC5         -0.3220     1.5650     0.2340 h1         1 NAY       0.043700
     26 HN           1.9220     1.5500     0.0810 hn         1 NAY       0.312500
     27 H111         4.1020     0.5500     0.6550 hc         1 NAY       0.054700
     28 H112         4.5130    -0.8670    -0.4000 hc         1 NAY       0.054700
     29 H113         3.9680     0.7420    -1.0350 hc         1 NAY       0.054700
     30 HO6         -2.3620    -0.7970    -0.5500 ho         1 NAY       0.492000
     31 HC6         -0.2920    -1.0820    -1.2930 h1         1 NAY       0.117700
     32 HC7          0.8380     0.9010    -2.4860 h1         1 NAY       0.072700
     33 HO7         -1.7530     1.7770    -1.9030 ho         1 NAY       0.500000
     34 HC8         -1.7030    -0.2130    -3.7810 h1         1 NAY       0.091700
     35 HO8          0.1450    -1.4350    -4.8330 ho         1 NAY       0.497000
     36 HC91        -0.9440     1.6250    -5.1590 h1         1 NAY       0.023200
     37 HC92         0.7560     1.1380    -5.0060 h1         1 NAY       0.023200
     38 HO9         -0.2880     0.4600    -7.0210 ho         1 NAY       0.495000
@<TRIPOS>BOND
     1     1     2 1   
     2     1     3 1   
     3     1     4 1   
     4     4     5 2   
     5     4     6 1   
     6     6     7 1   
     7     6    21 1   
     8     6    22 1   
     9     7     8 1   
    10     7    23 1   
    11     7    24 1   
    12     8     9 1   
    13     8    14 1   
    14     8    25 1   
    15     9    10 1   
    16     9    26 1   
    17    10    11 1   
    18    10    12 2   
    19    11    27 1   
    20    11    28 1   
    21    11    29 1   
    22    13    14 1   
    23    13    30 1   
    24    14    15 1   
    25    14    31 1   
    26    15    16 1   
    27    15    17 1   
    28    15    32 1   
    29    16    33 1   
    30    17    18 1   
    31    17    19 1   
    32    17    34 1   
    33    18    35 1   
    34    19    20 1   
    35    19    36 1   
    36    19    37 1   
    37    20    38 1   
@<TRIPOS>SUBSTRUCTURE
     1 NAY         1 TEMP              0 ****  ****    0 ROOT
