@<TRIPOS>MOLECULE
NAZ
   59    62     1     0     0
SMALL
abcg2


@<TRIPOS>ATOM
      1 C1          -5.5590     2.0660     0.5330 c3         1 NAZ       0.049700
      2 O2          -2.8930     2.8610     0.5930 o          1 NAZ      -0.612100
      3 C3          -0.7190     1.1150     0.1140 c3         1 NAZ       0.168800
      4 N4           0.2740     0.0600     0.1910 n7         1 NAZ      -0.867400
      5 C5           1.6190     0.5470    -0.0560 c3         1 NAZ       0.166800
      6 C6           2.6220    -0.5850     0.0580 c3         1 NAZ      -0.171400
      7 C7           4.0560    -0.0950    -0.0680 c          1 NAZ       0.612100
      8 C8           6.3200    -1.0710    -0.4940 ca         1 NAZ       0.252900
      9 C9           6.9430    -2.2270    -1.0430 ca         1 NAZ      -0.211000
     10 N10          6.9710    -0.0260    -0.0840 nb         1 NAZ      -0.142000
     11 C11          8.2980    -2.2380    -1.1470 ca         1 NAZ      -0.024000
     12 C12          8.3140    -0.0180    -0.1890 ca         1 NAZ       0.103000
     13 C13          9.0350    -1.1150    -0.7190 ca         1 NAZ      -0.171000
     14 C14         11.0410     0.1220    -0.3390 ca         1 NAZ      -0.180000
     15 C15         10.4370    -1.0160    -0.7850 ca         1 NAZ      -0.040000
     16 C16         10.2370     1.1690     0.1790 ca         1 NAZ       0.131300
     17 N17          8.9340     1.0940     0.2490 nb         1 NAZ      -0.124000
     18 N18          4.9340    -1.1090    -0.3920 ns         1 NAZ      -0.343900
     19 C19         10.8900     2.4250     0.6670 c3         1 NAZ      -0.153400
     20 O20          4.3670     1.0510     0.1160 o          1 NAZ      -0.506100
     21 C21         -2.0800     0.5970     0.5470 c3         1 NAZ      -0.158400
     22 C22         -3.1540     1.6660     0.5280 c          1 NAZ       0.601100
     23 N23         -4.4100     1.2080     0.4630 ns         1 NAZ      -0.505900
     24 C24         -8.7300    -3.0500     0.2130 c          1 NAZ       0.572200
     25 C25        -10.0540    -2.4670     0.4120 cc         1 NAZ      -0.293200
     26 N26         -7.6970    -2.1240     0.2320 ns         1 NAZ      -0.466400
     27 C27        -10.2280    -1.1470     0.5920 cd         1 NAZ      -0.074200
     28 C28         -7.8320    -0.7820     0.4110 ca         1 NAZ       0.517900
     29 C29         -9.1140    -0.2450     0.5960 ca         1 NAZ      -0.184800
     30 C30         -8.0530     1.8990     0.7540 ca         1 NAZ      -0.202000
     31 C31         -9.1980     1.1350     0.7700 ca         1 NAZ      -0.007000
     32 C32         -6.8280     1.2570     0.5640 ca         1 NAZ       0.401300
     33 N33         -6.7240    -0.0490     0.3990 nb         1 NAZ      -0.754000
     34 H36         -5.5180     2.7000     1.4230 h1         1 NAZ       0.068200
     35 H37         -5.5970     2.7420    -0.3290 h1         1 NAZ       0.068200
     36 H38         -0.4110     1.9190     0.7850 h1         1 NAZ       0.049700
     37 H39         -0.7890     1.5580    -0.8900 h1         1 NAZ       0.049700
     38 H40          0.0510    -0.6450    -0.5030 hn         1 NAZ       0.397000
     39 H41          1.8510     1.3080     0.6920 h1         1 NAZ       0.051200
     40 H42          1.7220     1.0300    -1.0380 h1         1 NAZ       0.051200
     41 H43          2.4120    -1.3520    -0.6960 hc         1 NAZ       0.063700
     42 H44          2.5160    -1.0750     1.0320 hc         1 NAZ       0.063700
     43 H45          6.3540    -3.0730    -1.3750 ha         1 NAZ       0.122000
     44 H46          8.8130    -3.0970    -1.5590 ha         1 NAZ       0.120000
     45 H47         12.1160     0.2350    -0.3740 ha         1 NAZ       0.125000
     46 H48         11.0180    -1.8380    -1.1860 ha         1 NAZ       0.118000
     47 H49          4.5160    -2.0020    -0.5960 hn         1 NAZ       0.151000
     48 H50         11.3800     2.9520    -0.1540 hc         1 NAZ       0.056367
     49 H51         10.1520     3.0880     1.1100 hc         1 NAZ       0.056367
     50 H52         11.6590     2.2090     1.4110 hc         1 NAZ       0.056367
     51 H53         -2.3860    -0.2480    -0.0770 hc         1 NAZ       0.063200
     52 H54         -2.0080     0.2070     1.5670 hc         1 NAZ       0.063200
     53 H55         -4.6020     0.2190     0.4020 hn         1 NAZ       0.342500
     54 H56        -10.8880    -3.1550     0.4070 ha         1 NAZ       0.213000
     55 H35         -6.7620    -2.4830     0.0990 hn         1 NAZ       0.336500
     56 H57        -11.2220    -0.7430     0.7400 ha         1 NAZ       0.192000
     57 H58         -8.0940     2.9710     0.8870 ha         1 NAZ       0.136000
     58 H59        -10.1650     1.5990     0.9220 ha         1 NAZ       0.126000
     59 O34         -8.5070    -4.2280     0.0440 o          1 NAZ      -0.523000
@<TRIPOS>BOND
     1     1    23 1   
     2     1    32 1   
     3     1    34 1   
     4     1    35 1   
     5     2    22 2   
     6     3     4 1   
     7     3    21 1   
     8     3    36 1   
     9     3    37 1   
    10     4     5 1   
    11     4    38 1   
    12     5     6 1   
    13     5    39 1   
    14     5    40 1   
    15     6     7 1   
    16     6    41 1   
    17     6    42 1   
    18     7    18 1   
    19     7    20 2   
    20     8     9 ar  
    21     8    10 ar  
    22     8    18 1   
    23     9    11 ar  
    24     9    43 1   
    25    10    12 ar  
    26    11    13 ar  
    27    11    44 1   
    28    12    13 ar  
    29    12    17 ar  
    30    13    15 ar  
    31    14    15 ar  
    32    14    16 ar  
    33    14    45 1   
    34    15    46 1   
    35    16    17 ar  
    36    16    19 1   
    37    18    47 1   
    38    19    48 1   
    39    19    49 1   
    40    19    50 1   
    41    21    22 1   
    42    21    51 1   
    43    21    52 1   
    44    22    23 1   
    45    23    53 1   
    46    24    25 1   
    47    24    26 1   
    48    24    59 2   
    49    25    27 2   
    50    25    54 1   
    51    26    28 1   
    52    26    55 1   
    53    27    29 1   
    54    27    56 1   
    55    28    29 ar  
    56    28    33 ar  
    57    29    31 ar  
    58    30    31 ar  
    59    30    32 ar  
    60    30    57 1   
    61    31    58 1   
    62    32    33 ar  
@<TRIPOS>SUBSTRUCTURE
     1 NAZ         1 TEMP              0 ****  ****    0 ROOT
