@<TRIPOS>MOLECULE
NAZ
   59    62     1     0     0
SMALL
No Charge or Current Charge


@<TRIPOS>ATOM
      1 C1          -5.0540     0.9400    -1.3690 c3         1 NAZ       0.049700
      2 O2          -3.5370     1.8310     0.8940 o          1 NAZ      -0.612100
      3 C3          -0.7350     0.5140     0.5610 c3         1 NAZ       0.168800
      4 N4           0.3420    -0.3470     1.0830 n7         1 NAZ      -0.867400
      5 C5           1.7100     0.1530     0.8600 c3         1 NAZ       0.166800
      6 C6           2.7180    -0.8250     1.4800 c3         1 NAZ      -0.171400
      7 C7           4.1450    -0.3200     1.2730 c          1 NAZ       0.612100
      8 C8           6.1990    -0.8960    -0.1300 ca         1 NAZ       0.252900
      9 C9           6.7120    -1.8160    -1.0530 ca         1 NAZ      -0.211000
     10 N10          6.9130     0.1490     0.3380 nb         1 NAZ      -0.142000
     11 C11          8.0260    -1.6490    -1.5070 ca         1 NAZ      -0.024000
     12 C12          8.1860     0.3410    -0.0790 ca         1 NAZ       0.103000
     13 C13          8.7700    -0.5610    -1.0150 ca         1 NAZ      -0.171000
     14 C14         10.8080     0.7260    -0.9450 ca         1 NAZ      -0.180000
     15 C15         10.0920    -0.3660    -1.4510 ca         1 NAZ      -0.040000
     16 C16         10.1750     1.5790    -0.0280 ca         1 NAZ       0.131300
     17 N17          8.9060     1.3860     0.3890 nb         1 NAZ      -0.124000
     18 N18          4.8720    -1.0380     0.3380 ns         1 NAZ      -0.343900
     19 C19         10.9050     2.7750     0.5570 c3         1 NAZ      -0.153400
     20 O20          4.5920     0.6210     1.9150 o          1 NAZ      -0.506100
     21 C21         -2.0990    -0.1100     0.8930 c3         1 NAZ      -0.158400
     22 C22         -3.2280     0.7730     0.3660 c          1 NAZ       0.601100
     23 N23         -3.9010     0.2790    -0.7270 ns         1 NAZ      -0.505900
     24 C24         -9.9590    -2.3130     0.0070 c          1 NAZ       0.572200
     25 C25        -10.5950    -1.3710     0.9540 cc         1 NAZ      -0.293200
     26 N26         -8.7780    -1.8680    -0.5170 ns         1 NAZ      -0.466400
     27 C27        -10.0340    -0.1470     1.2750 cd         1 NAZ      -0.074200
     28 C28         -8.1690    -0.6620    -0.2370 ca         1 NAZ       0.517900
     29 C29         -8.7630     0.2350     0.6560 ca         1 NAZ      -0.184800
     30 C30         -6.8920     1.6830     0.2470 ca         1 NAZ      -0.202000
     31 C31         -8.1090     1.4490     0.9120 ca         1 NAZ      -0.007000
     32 C32         -6.3780     0.7120    -0.6380 ca         1 NAZ       0.401300
     33 N33         -7.0130    -0.4610    -0.8820 nb         1 NAZ      -0.754000
     34 H36         -4.8580     2.0180    -1.4360 h1         1 NAZ       0.068200
     35 H37         -5.1450     0.5630    -2.3960 h1         1 NAZ       0.068200
     36 H38         -0.6780     1.5160     1.0110 h1         1 NAZ       0.049700
     37 H39         -0.6450     0.6310    -0.5280 h1         1 NAZ       0.049700
     38 H40          0.2600    -1.2700     0.6390 hn         1 NAZ       0.397000
     39 H41          1.8370     1.1440     1.3200 h1         1 NAZ       0.051200
     40 H42          1.9160     0.2540    -0.2150 h1         1 NAZ       0.051200
     41 H43          2.5930    -1.8080     1.0110 hc         1 NAZ       0.063700
     42 H44          2.5210    -0.8930     2.5570 hc         1 NAZ       0.063700
     43 H45          6.1050    -2.6430    -1.4100 ha         1 NAZ       0.122000
     44 H46          8.4560    -2.3470    -2.2230 ha         1 NAZ       0.120000
     45 H47         11.8330     0.9070    -1.2580 ha         1 NAZ       0.125000
     46 H48         10.5560    -1.0450    -2.1650 ha         1 NAZ       0.118000
     47 H49          4.3670    -1.8010    -0.0930 hn         1 NAZ       0.151000
     48 H50         11.6800     3.1410    -0.1270 hc         1 NAZ       0.056367
     49 H51         10.2200     3.6080     0.7540 hc         1 NAZ       0.056367
     50 H52         11.3920     2.5090     1.5020 hc         1 NAZ       0.056367
     51 H53         -2.1520    -1.1060     0.4390 hc         1 NAZ       0.063200
     52 H54         -2.1900    -0.1860     1.9820 hc         1 NAZ       0.063200
     53 H55         -3.5980    -0.6210    -1.0840 hn         1 NAZ       0.342500
     54 H56        -11.5340    -1.7050     1.3820 ha         1 NAZ       0.213000
     55 H35         -8.2980    -2.4680    -1.1690 hn         1 NAZ       0.336500
     56 H57        -10.5340     0.5180     1.9770 ha         1 NAZ       0.192000
     57 H58         -6.3460     2.6070     0.4160 ha         1 NAZ       0.136000
     58 H59         -8.5240     2.1830     1.5990 ha         1 NAZ       0.126000
     59 O34        -10.4290    -3.3960    -0.2950 o          1 NAZ      -0.523000
@<TRIPOS>BOND
     1     1    23 1   
     2     1    32 1   
     3     1    34 1   
     4     1    35 1   
     5     2    22 2   
     6     3     4 1   
     7     3    21 1   
     8     3    36 1   
     9     3    37 1   
    10     4     5 1   
    11     4    38 1   
    12     5     6 1   
    13     5    39 1   
    14     5    40 1   
    15     6     7 1   
    16     6    41 1   
    17     6    42 1   
    18     7    18 1   
    19     7    20 2   
    20     8     9 ar  
    21     8    10 ar  
    22     8    18 1   
    23     9    11 ar  
    24     9    43 1   
    25    10    12 ar  
    26    11    13 ar  
    27    11    44 1   
    28    12    13 ar  
    29    12    17 ar  
    30    13    15 ar  
    31    14    15 ar  
    32    14    16 ar  
    33    14    45 1   
    34    15    46 1   
    35    16    17 ar  
    36    16    19 1   
    37    18    47 1   
    38    19    48 1   
    39    19    49 1   
    40    19    50 1   
    41    21    22 1   
    42    21    51 1   
    43    21    52 1   
    44    22    23 1   
    45    23    53 1   
    46    24    25 1   
    47    24    26 1   
    48    24    59 2   
    49    25    27 2   
    50    25    54 1   
    51    26    28 1   
    52    26    55 1   
    53    27    29 1   
    54    27    56 1   
    55    28    29 ar  
    56    28    33 ar  
    57    29    31 ar  
    58    30    31 ar  
    59    30    32 ar  
    60    30    57 1   
    61    31    58 1   
    62    32    33 ar  
@<TRIPOS>SUBSTRUCTURE
     1 NAZ         1 TEMP              0 ****  ****    0 ROOT
