@<TRIPOS>MOLECULE
NB0
   44    47     1     0     0
SMALL
abcg2


@<TRIPOS>ATOM
      1 N1           7.4230    -1.5460    21.8480 n          1 NB0      -0.408800
      2 C4          12.4220    -1.3020    22.4060 ca         1 NB0      -0.139000
      3 C5          11.4100    -1.9060    23.1620 ca         1 NB0       0.237000
      4 C6           9.2860    -2.9380    22.5810 c6         1 NB0       0.167800
      5 C7           7.7890    -2.6870    22.6800 c6         1 NB0       0.095500
      6 C8           8.1770    -0.3360    22.1600 c6         1 NB0       0.095500
      7 C10          6.5520    -1.6740    20.8330 c          1 NB0       0.604300
      8 C13          6.7710     0.8520    17.9670 c          1 NB0       0.557200
      9 C15          4.0070     2.4840    19.8240 ca         1 NB0      -0.168000
     10 C17          3.5040     1.2420    21.8380 ca         1 NB0      -0.145000
     11 O1           7.4030     1.0700    16.9270 o          1 NB0      -0.551000
     12 C12          7.0140    -0.2710    18.8510 cc         1 NB0      -0.265200
     13 N2           5.7640     1.6980    18.3690 ns         1 NB0      -0.374100
     14 C14          5.0060     1.5560    19.5090 ca         1 NB0       0.101600
     15 C19          5.2540     0.4600    20.3620 ca         1 NB0      -0.124800
     16 C18          4.4860     0.3240    21.5310 ca         1 NB0      -0.044000
     17 C16          3.2660     2.3230    20.9790 ca         1 NB0      -0.052000
     18 C11          6.2990    -0.4540    19.9850 cd         1 NB0      -0.032400
     19 O            5.9490    -2.7150    20.5650 o          1 NB0      -0.586100
     20 C9           9.6710    -0.6070    22.0490 c6         1 NB0       0.167800
     21 N           10.0390    -1.7210    22.9170 nh         1 NB0      -0.773400
     22 C           11.8340    -2.6990    24.2370 ca         1 NB0       0.143000
     23 F           10.8920    -3.2670    25.0370 f          1 NB0      -0.182000
     24 C3          13.7670    -1.4880    22.7120 ca         1 NB0      -0.101000
     25 C2          14.1440    -2.2990    23.7750 ca         1 NB0      -0.107000
     26 C1          13.1600    -2.9120    24.5470 ca         1 NB0      -0.128000
     27 H1          12.1550    -0.6800    21.5630 ha         1 NB0       0.117000
     28 H2           9.5570    -3.7370    23.2650 h1         1 NB0       0.052200
     29 H3           9.5320    -3.2620    21.5590 h1         1 NB0       0.052200
     30 H4           7.5150    -2.4650    23.7150 h1         1 NB0       0.069200
     31 H5           7.2340    -3.5570    22.3440 h1         1 NB0       0.069200
     32 H6           7.8980     0.4650    21.4830 h1         1 NB0       0.069200
     33 H7           7.9320    -0.0300    23.1800 h1         1 NB0       0.069200
     34 H8           3.8280     3.3180    19.1570 ha         1 NB0       0.122000
     35 H9           2.9170     1.1290    22.7400 ha         1 NB0       0.123000
     36 H10          7.8070    -0.9490    18.5670 ha         1 NB0       0.215000
     37 H11          5.5830     2.4910    17.7660 hn         1 NB0       0.330500
     38 H12          4.6730    -0.5120    22.1920 ha         1 NB0       0.127000
     39 H13          2.4940     3.0430    21.2200 ha         1 NB0       0.119000
     40 H14          9.9200    -0.8080    20.9970 h1         1 NB0       0.052200
     41 H15         10.2140     0.2840    22.3630 h1         1 NB0       0.052200
     42 H16         14.5210    -1.0030    22.1050 ha         1 NB0       0.118000
     43 H17         15.1890    -2.4510    24.0120 ha         1 NB0       0.121000
     44 H18         13.4080    -3.5350    25.3960 ha         1 NB0       0.132000
@<TRIPOS>BOND
     1     1     5 1   
     2     1     6 1   
     3     1     7 1   
     4     2     3 ar  
     5     2    24 ar  
     6     2    27 1   
     7     3    21 1   
     8     3    22 ar  
     9     4     5 1   
    10     4    21 1   
    11     4    28 1   
    12     4    29 1   
    13     5    30 1   
    14     5    31 1   
    15     6    20 1   
    16     6    32 1   
    17     6    33 1   
    18     7    18 1   
    19     7    19 2   
    20     8    11 2   
    21     8    12 1   
    22     8    13 1   
    23     9    14 ar  
    24     9    17 ar  
    25     9    34 1   
    26    10    16 ar  
    27    10    17 ar  
    28    10    35 1   
    29    12    18 2   
    30    12    36 1   
    31    13    14 1   
    32    13    37 1   
    33    14    15 ar  
    34    15    16 ar  
    35    15    18 1   
    36    16    38 1   
    37    17    39 1   
    38    20    21 1   
    39    20    40 1   
    40    20    41 1   
    41    22    23 1   
    42    22    26 ar  
    43    24    25 ar  
    44    24    42 1   
    45    25    26 ar  
    46    25    43 1   
    47    26    44 1   
@<TRIPOS>SUBSTRUCTURE
     1 NB0         1 TEMP              0 ****  ****    0 ROOT
