@<TRIPOS>MOLECULE
NB0
   44    47     1     0     0
SMALL
No Charge or Current Charge


@<TRIPOS>ATOM
      1 N1           7.3570    -1.6900    21.5490 n          1 NB0      -0.408800
      2 C4          12.4590    -1.3360    22.5870 ca         1 NB0      -0.139000
      3 C5          11.3580    -1.8950    23.2720 ca         1 NB0       0.237000
      4 C6           9.3220    -3.0660    22.3390 c6         1 NB0       0.167800
      5 C7           7.7850    -2.8530    22.3780 c6         1 NB0       0.095500
      6 C8           8.0840    -0.4380    21.9230 c6         1 NB0       0.095500
      7 C10          6.7340    -1.8700    20.2910 c          1 NB0       0.604300
      8 C13          5.6930     0.5150    17.4390 c          1 NB0       0.557200
      9 C15          4.4530     2.7050    20.1850 ca         1 NB0      -0.168000
     10 C17          4.5390     1.5740    22.3280 ca         1 NB0      -0.145000
     11 O1           5.7500     0.5650    16.2210 o          1 NB0      -0.551000
     12 C12          6.1370    -0.6370    18.2350 cc         1 NB0      -0.265200
     13 N2           5.2180     1.5570    18.1860 ns         1 NB0      -0.374100
     14 C14          5.0550     1.5920    19.5780 ca         1 NB0       0.101600
     15 C19          5.4560     0.4730    20.3390 ca         1 NB0      -0.124800
     16 C18          5.1430     0.4600    21.7200 ca         1 NB0      -0.044000
     17 C16          4.2080     2.7050    21.5660 ca         1 NB0      -0.052000
     18 C11          6.0960    -0.6720    19.6250 cd         1 NB0      -0.032400
     19 O            6.7720    -2.9670    19.7430 o          1 NB0      -0.586100
     20 C9           9.6280    -0.6280    21.9090 c6         1 NB0       0.167800
     21 N           10.0540    -1.8170    22.7070 nh         1 NB0      -0.773400
     22 C           11.5930    -2.5280    24.5230 ca         1 NB0       0.143000
     23 F           10.5710    -3.0630    25.2360 f          1 NB0      -0.182000
     24 C3          13.7560    -1.4060    23.1280 ca         1 NB0      -0.101000
     25 C2          13.9720    -2.0350    24.3640 ca         1 NB0      -0.107000
     26 C1          12.8900    -2.5950    25.0620 ca         1 NB0      -0.128000
     27 H1          12.3160    -0.8550    21.6240 ha         1 NB0       0.117000
     28 H2           9.5800    -3.8880    23.0220 h1         1 NB0       0.052200
     29 H3           9.6110    -3.3820    21.3260 h1         1 NB0       0.052200
     30 H4           7.4790    -2.6750    23.4180 h1         1 NB0       0.069200
     31 H5           7.2790    -3.7720    22.0510 h1         1 NB0       0.069200
     32 H6           7.8430     0.3870    21.2410 h1         1 NB0       0.069200
     33 H7           7.7730    -0.1320    22.9320 h1         1 NB0       0.069200
     34 H8           4.1590     3.5640    19.5860 ha         1 NB0       0.122000
     35 H9           4.3170     1.5550    23.3920 ha         1 NB0       0.123000
     36 H10          6.5610    -1.4470    17.6520 ha         1 NB0       0.215000
     37 H11          4.9140     2.3700    17.6660 hn         1 NB0       0.330500
     38 H12          5.3390    -0.4130    22.3340 ha         1 NB0       0.127000
     39 H13          3.7360     3.5640    22.0390 ha         1 NB0       0.119000
     40 H14          9.9590    -0.7420    20.8660 h1         1 NB0       0.052200
     41 H15         10.0950     0.2860    22.3040 h1         1 NB0       0.052200
     42 H16         14.5940    -0.9740    22.5850 ha         1 NB0       0.118000
     43 H17         14.9770    -2.0880    24.7810 ha         1 NB0       0.121000
     44 H18         13.0520    -3.0800    26.0210 ha         1 NB0       0.132000
@<TRIPOS>BOND
     1     1     5 1   
     2     1     6 1   
     3     1     7 1   
     4     2     3 ar  
     5     2    24 ar  
     6     2    27 1   
     7     3    21 1   
     8     3    22 ar  
     9     4     5 1   
    10     4    21 1   
    11     4    28 1   
    12     4    29 1   
    13     5    30 1   
    14     5    31 1   
    15     6    20 1   
    16     6    32 1   
    17     6    33 1   
    18     7    18 1   
    19     7    19 2   
    20     8    11 2   
    21     8    12 1   
    22     8    13 1   
    23     9    14 ar  
    24     9    17 ar  
    25     9    34 1   
    26    10    16 ar  
    27    10    17 ar  
    28    10    35 1   
    29    12    18 2   
    30    12    36 1   
    31    13    14 1   
    32    13    37 1   
    33    14    15 ar  
    34    15    16 ar  
    35    15    18 1   
    36    16    38 1   
    37    17    39 1   
    38    20    21 1   
    39    20    40 1   
    40    20    41 1   
    41    22    23 1   
    42    22    26 ar  
    43    24    25 ar  
    44    24    42 1   
    45    25    26 ar  
    46    25    43 1   
    47    26    44 1   
@<TRIPOS>SUBSTRUCTURE
     1 NB0         1 TEMP              0 ****  ****    0 ROOT
