@<TRIPOS>MOLECULE
NB1
   33    34     1     0     0
SMALL
abcg2


@<TRIPOS>ATOM
      1 C1           1.9930    -1.1350    -1.9480 c5         1 NB1       0.314300
      2 C2           1.9870    -1.0880    -0.4100 c5         1 NB1       0.075500
      3 C3           1.2950     0.1660     0.1310 c6         1 NB1       0.177300
      4 C4           1.7080     1.4030    -0.6560 c6         1 NB1       0.106300
      5 C5           1.4160     1.1650    -2.1370 c6         1 NB1       0.087300
      6 C6           1.7890     2.3440    -3.0170 c3         1 NB1       0.171600
      7 C7           0.4640    -2.7270    -0.7420 c2         1 NB1       0.487200
      8 C8          -0.4420    -3.8780    -0.4620 c3         1 NB1      -0.113700
      9 CM          -2.8060    -4.7580    -0.4020 c3         1 NB1      -0.089100
     10 N2           1.3000    -2.2610     0.0870 n2         1 NB1      -0.551900
     11 O3           1.6170     0.2720     1.4920 oh         1 NB1      -0.640000
     12 O4           0.9600     2.4840    -0.1470 oh         1 NB1      -0.717000
     13 O5           2.1920     0.0640    -2.5900 os         1 NB1      -0.423000
     14 O6           1.4550     2.1420    -4.3680 oh         1 NB1      -0.706000
     15 S1           0.3830    -1.9690    -2.3450 ss         1 NB1      -0.453200
     16 C9          -1.9150    -3.5700    -0.7330 c3         1 NB1      -0.074400
     17 H1           2.7800    -1.8040    -2.3000 h2         1 NB1       0.109700
     18 H2           3.0240    -1.0860    -0.0610 h1         1 NB1       0.108700
     19 H3           0.2080     0.0450    -0.0060 h1         1 NB1       0.057700
     20 H4           2.7870     1.5700    -0.5290 h1         1 NB1       0.055700
     21 HA           1.1640     1.0460     1.8440 ho         1 NB1       0.459000
     22 H5           0.3450     0.9460    -2.2670 h1         1 NB1       0.085700
     23 HB           1.4700     3.2940    -0.2420 ho         1 NB1       0.514000
     24 H6C1         2.8580     2.5670    -2.8890 h1         1 NB1       0.049700
     25 H6C2         1.2330     3.2200    -2.6820 h1         1 NB1       0.049700
     26 H6           1.9780     1.4070    -4.7020 ho         1 NB1       0.515000
     27 H8C1        -0.3010    -4.1680     0.5810 hc         1 NB1       0.070200
     28 H8C2        -0.1290    -4.7240    -1.0810 hc         1 NB1       0.070200
     29 H9C1        -2.0500    -3.2980    -1.7830 hc         1 NB1       0.049200
     30 H9C2        -2.2190    -2.7000    -0.1460 hc         1 NB1       0.049200
     31 HMC1        -2.7340    -5.0240     0.6540 hc         1 NB1       0.035700
     32 HMC2        -2.5220    -5.6360    -0.9850 hc         1 NB1       0.035700
     33 HMC3        -3.8510    -4.5370    -0.6190 hc         1 NB1       0.035700
@<TRIPOS>BOND
     1     1     2 1   
     2     1    13 1   
     3     1    15 1   
     4     1    17 1   
     5     2     3 1   
     6     2    10 1   
     7     2    18 1   
     8     3     4 1   
     9     3    11 1   
    10     3    19 1   
    11     4     5 1   
    12     4    12 1   
    13     4    20 1   
    14     5     6 1   
    15     5    13 1   
    16     5    22 1   
    17     6    14 1   
    18     6    24 1   
    19     6    25 1   
    20     7     8 1   
    21     7    10 2   
    22     7    15 1   
    23     8    16 1   
    24     8    27 1   
    25     8    28 1   
    26     9    16 1   
    27     9    31 1   
    28     9    32 1   
    29     9    33 1   
    30    11    21 1   
    31    12    23 1   
    32    14    26 1   
    33    16    29 1   
    34    16    30 1   
@<TRIPOS>SUBSTRUCTURE
     1 NB1         1 TEMP              0 ****  ****    0 ROOT
