@<TRIPOS>MOLECULE
NB1
   33    34     1     0     0
SMALL
No Charge or Current Charge


@<TRIPOS>ATOM
      1 C1           2.0420    -1.2010    -1.9870 c5         1 NB1       0.314300
      2 C2           1.9120    -1.0820    -0.4340 c5         1 NB1       0.075500
      3 C3           1.0790     0.1510     0.0390 c6         1 NB1       0.177300
      4 C4           1.5650     1.4400    -0.6680 c6         1 NB1       0.106300
      5 C5           1.4820     1.2360    -2.2080 c6         1 NB1       0.087300
      6 C6           2.0010     2.4560    -3.0260 c3         1 NB1       0.171600
      7 C7           0.4570    -2.7590    -0.9300 c2         1 NB1       0.487200
      8 C8          -0.4400    -3.9670    -0.7830 c3         1 NB1      -0.113700
      9 CM          -2.7930    -4.8230    -0.1790 c3         1 NB1      -0.089100
     10 N2           1.2370    -2.3550     0.0150 n2         1 NB1      -0.551900
     11 O3           1.1570     0.3350     1.4620 oh         1 NB1      -0.640000
     12 O4           0.7690     2.5650    -0.2330 oh         1 NB1      -0.717000
     13 O5           2.2660     0.0870    -2.6270 os         1 NB1      -0.423000
     14 O6           2.1850     2.1080    -4.4060 oh         1 NB1      -0.706000
     15 S1           0.4270    -1.8980    -2.4870 ss         1 NB1      -0.453200
     16 C9          -1.8720    -3.5970    -0.3310 c3         1 NB1      -0.074400
     17 H1           2.8370    -1.9090    -2.2550 h2         1 NB1       0.109700
     18 H2           2.9170    -1.0090     0.0030 h1         1 NB1       0.108700
     19 H3           0.0290    -0.0060    -0.2510 h1         1 NB1       0.057700
     20 H4           2.6210     1.6010    -0.4000 h1         1 NB1       0.055700
     21 HA           0.8350     1.2540     1.6060 ho         1 NB1       0.459000
     22 H5           0.4320     1.0620    -2.4890 h1         1 NB1       0.085700
     23 HB           1.3130     3.3810    -0.3410 ho         1 NB1       0.514000
     24 H6C1         2.9540     2.7840    -2.5910 h1         1 NB1       0.049700
     25 H6C2         1.2860     3.2850    -2.9280 h1         1 NB1       0.049700
     26 H6           2.4480     1.1560    -4.3850 ho         1 NB1       0.515000
     27 H8C1        -0.0020    -4.6650    -0.0600 hc         1 NB1       0.070200
     28 H8C2        -0.4890    -4.5030    -1.7380 hc         1 NB1       0.070200
     29 H9C1        -2.3150    -2.9050    -1.0580 hc         1 NB1       0.049200
     30 H9C2        -1.8230    -3.0640     0.6270 hc         1 NB1       0.049200
     31 HMC1        -2.3940    -5.5180     0.5700 hc         1 NB1       0.035700
     32 HMC2        -2.8900    -5.3570    -1.1320 hc         1 NB1       0.035700
     33 HMC3        -3.7940    -4.5110     0.1430 hc         1 NB1       0.035700
@<TRIPOS>BOND
     1     1     2 1   
     2     1    13 1   
     3     1    15 1   
     4     1    17 1   
     5     2     3 1   
     6     2    10 1   
     7     2    18 1   
     8     3     4 1   
     9     3    11 1   
    10     3    19 1   
    11     4     5 1   
    12     4    12 1   
    13     4    20 1   
    14     5     6 1   
    15     5    13 1   
    16     5    22 1   
    17     6    14 1   
    18     6    24 1   
    19     6    25 1   
    20     7     8 1   
    21     7    10 2   
    22     7    15 1   
    23     8    16 1   
    24     8    27 1   
    25     8    28 1   
    26     9    16 1   
    27     9    31 1   
    28     9    32 1   
    29     9    33 1   
    30    11    21 1   
    31    12    23 1   
    32    14    26 1   
    33    16    29 1   
    34    16    30 1   
@<TRIPOS>SUBSTRUCTURE
     1 NB1         1 TEMP              0 ****  ****    0 ROOT
