@<TRIPOS>MOLECULE
NB2
  102   105     1     0     0
SMALL
abcg2


@<TRIPOS>ATOM
      1 C1         -13.2000   -38.8460   -15.6950 c3         1 NB2       0.048400
      2 C10         -9.2960   -40.9660   -19.3930 c5         1 NB2       0.132000
      3 C11         -8.5630   -39.6690   -19.1710 cx         1 NB2      -0.122700
      4 C12         -8.9540   -39.1390   -17.8210 cx         1 NB2      -0.127700
      5 C13        -10.4610   -42.4200   -17.6950 c          1 NB2       0.580100
      6 C14        -10.4290   -43.6200   -18.6440 c3         1 NB2       0.049700
      7 C17        -11.8290   -43.9960   -19.1930 c3         1 NB2      -0.038000
      8 C2         -13.0880   -37.7470   -14.6720 c2         1 NB2       0.407200
      9 C21         -7.5400   -39.5850   -18.0730 cx         1 NB2      -0.078000
     10 C22         -6.5380   -38.4610   -18.2110 c3         1 NB2      -0.064600
     11 C23         -6.9410   -40.8110   -17.4220 c3         1 NB2      -0.064600
     12 C24         -6.5510   -46.1940   -17.0290 c6         1 NB2       0.186400
     13 C25         -5.5700   -45.0270   -16.7950 c6         1 NB2      -0.086400
     14 C26         -5.8260   -44.3070   -15.4790 c6         1 NB2      -0.068900
     15 C27         -5.7300   -45.2720   -14.3040 c6         1 NB2      -0.075400
     16 C28         -6.6680   -46.4570   -14.4910 c6         1 NB2      -0.068900
     17 C29         -6.4490   -47.1520   -15.8320 c6         1 NB2      -0.086400
     18 C30         -6.1110   -46.8730   -18.3410 c3         1 NB2      -0.312400
     19 C32         -6.7640   -48.6010   -20.5690 c3         1 NB2      -0.205000
     20 C33         -5.2820   -48.5100   -20.9130 c3         1 NB2      -0.085767
     21 C34         -7.5740   -47.5280   -21.2890 c3         1 NB2      -0.085767
     22 C35         -7.3090   -49.9890   -20.8960 c3         1 NB2      -0.085767
     23 C38        -15.1290   -40.6100   -17.4890 c5         1 NB2      -0.094400
     24 C39        -15.8830   -41.8710   -17.9180 c5         1 NB2       0.099000
     25 C4         -14.1720   -39.9190   -15.1940 c3         1 NB2      -0.070400
     26 C41        -15.3060   -42.1350   -15.6550 c          1 NB2       0.563000
     27 C43        -12.7960   -44.4960   -18.1180 c3         1 NB2      -0.089100
     28 C44        -12.4340   -42.7670   -19.8750 c3         1 NB2      -0.089100
     29 C45        -11.6400   -45.0990   -20.2370 c3         1 NB2      -0.089100
     30 C5         -14.4160   -41.0280   -16.2030 c5         1 NB2      -0.155700
     31 C8          -9.9300   -40.1120   -17.2020 c5         1 NB2       0.057700
     32 N16         -9.7890   -44.7200   -17.9620 ns         1 NB2      -0.482900
     33 N20         -7.9270   -45.7250   -17.0860 ns         1 NB2      -0.502900
     34 N3         -11.8830   -39.3930   -15.9530 ns         1 NB2      -0.494900
     35 N40        -16.1060   -42.5410   -16.6550 ns         1 NB2      -0.516900
     36 N46        -13.6540   -36.6340   -14.8430 n2         1 NB2      -0.731100
     37 N9          -9.9280   -41.2550   -18.1070 n          1 NB2      -0.395800
     38 O15        -10.9340   -42.5370   -16.5700 o          1 NB2      -0.629100
     39 O19         -7.7370   -44.2820   -18.8400 o          1 NB2      -0.672100
     40 O36         -6.2810   -49.5110   -18.0920 o          1 NB2      -0.523000
     41 O37         -8.4090   -48.2510   -18.4910 o          1 NB2      -0.523000
     42 O42        -15.2850   -42.5840   -14.5210 o          1 NB2      -0.557000
     43 O7         -11.8560   -39.1140   -18.2040 o          1 NB2      -0.600100
     44 S31         -6.9740   -48.4010   -18.7570 s6         1 NB2       1.026000
     45 H1         -13.5710   -38.4080   -16.6220 h1         1 NB2       0.105700
     46 H2         -10.0400   -40.8410   -20.1820 h1         1 NB2       0.066200
     47 H3          -8.6250   -41.7760   -19.6820 h1         1 NB2       0.066200
     48 H4          -8.4680   -39.0110   -20.0260 hc         1 NB2       0.100700
     49 H5          -9.1360   -38.0830   -17.6600 hc         1 NB2       0.104700
     50 H6          -9.8200   -43.3900   -19.5160 h1         1 NB2       0.090700
     51 H7         -12.5100   -38.0050   -13.7790 h4         1 NB2      -0.041200
     52 H8          -6.1510   -38.1640   -17.2340 hc         1 NB2       0.041200
     53 H9          -5.6900   -38.7720   -18.8250 hc         1 NB2       0.041200
     54 H10         -6.9770   -37.5760   -18.6760 hc         1 NB2       0.041200
     55 H11         -6.5970   -40.5690   -16.4150 hc         1 NB2       0.041200
     56 H12         -7.6220   -41.6550   -17.3420 hc         1 NB2       0.041200
     57 H13         -6.0730   -41.1480   -17.9920 hc         1 NB2       0.041200
     58 H14         -4.5590   -45.4460   -16.7780 hc         1 NB2       0.056700
     59 H15         -5.6080   -44.3330   -17.6330 hc         1 NB2       0.056700
     60 H16         -5.1010   -43.4980   -15.3670 hc         1 NB2       0.044450
     61 H17         -6.8130   -43.8350   -15.4950 hc         1 NB2       0.044450
     62 H18         -4.7000   -45.6360   -14.2230 hc         1 NB2       0.040200
     63 H19         -5.9540   -44.7600   -13.3660 hc         1 NB2       0.040200
     64 H20         -7.7060   -46.1210   -14.4030 hc         1 NB2       0.044450
     65 H21         -6.5210   -47.1870   -13.6920 hc         1 NB2       0.044450
     66 H22         -7.1620   -47.9740   -15.9380 hc         1 NB2       0.056700
     67 H23         -5.4520   -47.6000   -15.8480 hc         1 NB2       0.056700
     68 H24         -5.0540   -47.1390   -18.2860 h1         1 NB2       0.111700
     69 H25         -6.2380   -46.1790   -19.1720 h1         1 NB2       0.111700
     70 H26         -4.6870   -49.2300   -20.3520 hc         1 NB2       0.054144
     71 H27         -5.1600   -48.7330   -21.9730 hc         1 NB2       0.054144
     72 H28         -4.8780   -47.5110   -20.7430 hc         1 NB2       0.054144
     73 H29         -7.2580   -46.5160   -21.0380 hc         1 NB2       0.054144
     74 H30         -7.4300   -47.6540   -22.3630 hc         1 NB2       0.054144
     75 H31         -8.6400   -47.6190   -21.0840 hc         1 NB2       0.054144
     76 H32         -6.7270   -50.7810   -20.4280 hc         1 NB2       0.054144
     77 H33         -8.3540   -50.1000   -20.6040 hc         1 NB2       0.054144
     78 H34         -7.2530   -50.1300   -21.9760 hc         1 NB2       0.054144
     79 H35        -14.4500   -40.2540   -18.2610 hc         1 NB2       0.065700
     80 H36        -15.8410   -39.8090   -17.2740 hc         1 NB2       0.065700
     81 H37        -16.8250   -41.6480   -18.4180 h1         1 NB2       0.043200
     82 H38        -15.2820   -42.4890   -18.5920 h1         1 NB2       0.043200
     83 H39        -13.7900   -40.3450   -14.2610 hc         1 NB2       0.062200
     84 H40        -15.1210   -39.4320   -14.9510 hc         1 NB2       0.062200
     85 H41        -13.0120   -43.7380   -17.3680 hc         1 NB2       0.040256
     86 H42        -13.7420   -44.7750   -18.5870 hc         1 NB2       0.040256
     87 H43        -12.4220   -45.3840   -17.6050 hc         1 NB2       0.040256
     88 H44        -12.6390   -41.9590   -19.1690 hc         1 NB2       0.040256
     89 H45        -11.7770   -42.3750   -20.6560 hc         1 NB2       0.040256
     90 H46        -13.3820   -43.0310   -20.3470 hc         1 NB2       0.040256
     91 H47        -11.2200   -46.0040   -19.7970 hc         1 NB2       0.040256
     92 H48        -12.6010   -45.3610   -20.6830 hc         1 NB2       0.040256
     93 H49        -10.9770   -44.7770   -21.0430 hc         1 NB2       0.040256
     94 H50        -13.4610   -41.5090   -16.4510 hc         1 NB2       0.092700
     95 H51         -9.6160   -40.4320   -16.2040 h1         1 NB2       0.082700
     96 H52        -10.2600   -45.0520   -17.1330 hn         1 NB2       0.317500
     97 H53         -8.5950   -46.2910   -16.5870 hn         1 NB2       0.322500
     98 H54        -11.4000   -39.8180   -15.1760 hn         1 NB2       0.320500
     99 H55        -16.7070   -43.3460   -16.5650 hn         1 NB2       0.325500
    100 H56        -13.4970   -36.0260   -14.0440 hn         1 NB2       0.379400
    101 C6         -11.3280   -39.4930   -17.1710 c          1 NB2       0.597100
    102 C18         -8.4290   -44.8710   -18.0140 c          1 NB2       0.646100
@<TRIPOS>BOND
     1     1     8 1   
     2     1    25 1   
     3     1    34 1   
     4     1    45 1   
     5     2     3 1   
     6     2    37 1   
     7     2    46 1   
     8     2    47 1   
     9     3     4 1   
    10     3     9 1   
    11     3    48 1   
    12     4     9 1   
    13     4    31 1   
    14     4    49 1   
    15     5     6 1   
    16     5    37 1   
    17     5    38 2   
    18     6     7 1   
    19     6    32 1   
    20     6    50 1   
    21     7    27 1   
    22     7    28 1   
    23     7    29 1   
    24     8    36 2   
    25     8    51 1   
    26     9    10 1   
    27     9    11 1   
    28    10    52 1   
    29    10    53 1   
    30    10    54 1   
    31    11    55 1   
    32    11    56 1   
    33    11    57 1   
    34    12    13 1   
    35    12    17 1   
    36    12    18 1   
    37    12    33 1   
    38    13    14 1   
    39    13    58 1   
    40    13    59 1   
    41    14    15 1   
    42    14    60 1   
    43    14    61 1   
    44    15    16 1   
    45    15    62 1   
    46    15    63 1   
    47    16    17 1   
    48    16    64 1   
    49    16    65 1   
    50    17    66 1   
    51    17    67 1   
    52    18    44 1   
    53    18    68 1   
    54    18    69 1   
    55    19    20 1   
    56    19    21 1   
    57    19    22 1   
    58    19    44 1   
    59    20    70 1   
    60    20    71 1   
    61    20    72 1   
    62    21    73 1   
    63    21    74 1   
    64    21    75 1   
    65    22    76 1   
    66    22    77 1   
    67    22    78 1   
    68    23    24 1   
    69    23    30 1   
    70    23    79 1   
    71    23    80 1   
    72    24    35 1   
    73    24    81 1   
    74    24    82 1   
    75    25    30 1   
    76    25    83 1   
    77    25    84 1   
    78    26    30 1   
    79    26    35 1   
    80    26    42 2   
    81    27    85 1   
    82    27    86 1   
    83    27    87 1   
    84    28    88 1   
    85    28    89 1   
    86    28    90 1   
    87    29    91 1   
    88    29    92 1   
    89    29    93 1   
    90    30    94 1   
    91    31    37 1   
    92    31    95 1   
    93    31   101 1   
    94    32    96 1   
    95    32   102 1   
    96    33    97 1   
    97    33   102 1   
    98    34    98 1   
    99    34   101 1   
   100    35    99 1   
   101    36   100 1   
   102    39   102 2   
   103    40    44 2   
   104    41    44 2   
   105    43   101 2   
@<TRIPOS>SUBSTRUCTURE
     1 NB2         1 TEMP              0 ****  ****    0 ROOT
