@<TRIPOS>MOLECULE
NB2
  102   105     1     0     0
SMALL
No Charge or Current Charge


@<TRIPOS>ATOM
      1 C1         -13.9620   -38.6940   -16.2600 c3         1 NB2       0.048400
      2 C10         -8.7060   -40.1590   -19.1810 c5         1 NB2       0.132000
      3 C11         -8.7100   -38.6290   -19.0570 cx         1 NB2      -0.122700
      4 C12         -9.7460   -38.2270   -18.0420 cx         1 NB2      -0.127700
      5 C13         -9.9400   -41.9410   -17.8640 c          1 NB2       0.580100
      6 C14         -9.4680   -43.1020   -18.8050 c3         1 NB2       0.049700
      7 C17        -10.5460   -43.5340   -19.8760 c3         1 NB2      -0.038000
      8 C2         -14.3780   -37.2540   -15.9810 c2         1 NB2       0.407200
      9 C21         -8.2700   -38.0340   -17.7270 cx         1 NB2      -0.078000
     10 C22         -7.7220   -36.6080   -17.7290 c3         1 NB2      -0.064600
     11 C23         -7.5360   -38.8610   -16.6550 c3         1 NB2      -0.064600
     12 C24         -6.6880   -46.9460   -17.0470 c6         1 NB2       0.186400
     13 C25         -5.3260   -46.2540   -16.7160 c6         1 NB2      -0.086400
     14 C26         -5.3380   -45.5010   -15.3590 c6         1 NB2      -0.068900
     15 C27         -5.7040   -46.4590   -14.2020 c6         1 NB2      -0.075400
     16 C28         -7.0470   -47.1730   -14.4780 c6         1 NB2      -0.068900
     17 C29         -7.0320   -47.8960   -15.8540 c6         1 NB2      -0.086400
     18 C30         -6.5370   -47.7530   -18.3720 c3         1 NB2      -0.312400
     19 C32         -7.5750   -49.1790   -20.7110 c3         1 NB2      -0.205000
     20 C33         -6.1550   -49.7950   -20.8720 c3         1 NB2      -0.085767
     21 C34         -7.6860   -47.8860   -21.5740 c3         1 NB2      -0.085767
     22 C35         -8.6360   -50.2030   -21.2050 c3         1 NB2      -0.085767
     23 C38        -14.7730   -41.8450   -16.4650 c5         1 NB2      -0.094400
     24 C39        -14.5890   -43.3400   -16.0880 c5         1 NB2       0.099000
     25 C4         -14.3400   -39.6420   -15.0920 c3         1 NB2      -0.070400
     26 C41        -14.3290   -42.0410   -14.1080 c          1 NB2       0.563000
     27 C43        -11.8870   -43.9200   -19.1890 c3         1 NB2      -0.089100
     28 C44        -10.8220   -42.3890   -20.8860 c3         1 NB2      -0.089100
     29 C45        -10.0420   -44.7590   -20.6910 c3         1 NB2      -0.089100
     30 C5         -14.0020   -41.1460   -15.3100 c5         1 NB2      -0.155700
     31 C8         -10.4210   -39.4970   -17.4890 c5         1 NB2       0.057700
     32 N16         -9.0440   -44.2390   -17.9520 ns         1 NB2      -0.482900
     33 N20         -7.7510   -45.9330   -17.1600 ns         1 NB2      -0.502900
     34 N3         -12.5160   -38.7830   -16.5520 ns         1 NB2      -0.494900
     35 N40        -14.6750   -43.2570   -14.6320 ns         1 NB2      -0.516900
     36 N46        -15.1620   -36.5830   -16.7480 n2         1 NB2      -0.731100
     37 N9          -9.8080   -40.6010   -18.2890 n          1 NB2      -0.395800
     38 O15        -10.4680   -42.1850   -16.7820 o          1 NB2      -0.629100
     39 O19         -7.0920   -44.7420   -19.0100 o          1 NB2      -0.672100
     40 O36         -7.8230   -50.0600   -18.1750 o          1 NB2      -0.523000
     41 O37         -9.1500   -48.0190   -18.8550 o          1 NB2      -0.523000
     42 O42        -14.5070   -41.7430   -12.9380 o          1 NB2      -0.557000
     43 O7         -12.6510   -39.9060   -18.5470 o          1 NB2      -0.600100
     44 S31         -7.9080   -48.7990   -18.9250 s6         1 NB2       1.026000
     45 H1         -14.5190   -39.0240   -17.1470 h1         1 NB2       0.105700
     46 H2          -8.8940   -40.4680   -20.2150 h1         1 NB2       0.066200
     47 H3          -7.7440   -40.5980   -18.8810 h1         1 NB2       0.066200
     48 H4          -8.5910   -38.0230   -19.9520 hc         1 NB2       0.100700
     49 H5         -10.3460   -37.3390   -18.2320 hc         1 NB2       0.104700
     50 H6          -8.5830   -42.7430   -19.3430 h1         1 NB2       0.090700
     51 H7         -13.9740   -36.7880   -15.0870 h4         1 NB2      -0.041200
     52 H8          -7.8690   -36.1280   -16.7540 hc         1 NB2       0.041200
     53 H9          -6.6480   -36.5980   -17.9520 hc         1 NB2       0.041200
     54 H10         -8.2200   -35.9850   -18.4820 hc         1 NB2       0.041200
     55 H11         -7.6840   -38.4210   -15.6620 hc         1 NB2       0.041200
     56 H12         -7.8630   -39.9030   -16.5950 hc         1 NB2       0.041200
     57 H13         -6.4570   -38.8770   -16.8520 hc         1 NB2       0.041200
     58 H14         -4.5270   -47.0090   -16.6940 hc         1 NB2       0.056700
     59 H15         -5.0480   -45.5550   -17.5150 hc         1 NB2       0.056700
     60 H16         -4.3500   -45.0570   -15.1730 hc         1 NB2       0.044450
     61 H17         -6.0500   -44.6660   -15.3950 hc         1 NB2       0.044450
     62 H18         -4.9080   -47.2060   -14.0750 hc         1 NB2       0.040200
     63 H19         -5.7630   -45.9010   -13.2580 hc         1 NB2       0.040200
     64 H20         -7.8680   -46.4440   -14.4390 hc         1 NB2       0.044450
     65 H21         -7.2470   -47.9010   -13.6800 hc         1 NB2       0.044450
     66 H22         -8.0130   -48.3650   -16.0060 hc         1 NB2       0.056700
     67 H23         -6.3050   -48.7190   -15.8160 hc         1 NB2       0.056700
     68 H24         -5.6890   -48.4380   -18.2760 h1         1 NB2       0.111700
     69 H25         -6.3190   -47.0690   -19.1930 h1         1 NB2       0.111700
     70 H26         -6.0390   -50.6950   -20.2550 hc         1 NB2       0.054144
     71 H27         -5.9720   -50.0820   -21.9150 hc         1 NB2       0.054144
     72 H28         -5.3720   -49.0820   -20.5870 hc         1 NB2       0.054144
     73 H29         -6.9400   -47.1360   -21.2860 hc         1 NB2       0.054144
     74 H30         -7.5260   -48.1140   -22.6350 hc         1 NB2       0.054144
     75 H31         -8.6790   -47.4300   -21.4810 hc         1 NB2       0.054144
     76 H32         -8.5810   -51.1390   -20.6350 hc         1 NB2       0.054144
     77 H33         -9.6530   -49.8030   -21.0990 hc         1 NB2       0.054144
     78 H34         -8.4830   -50.4480   -22.2630 hc         1 NB2       0.054144
     79 H35        -14.3790   -41.6150   -17.4600 hc         1 NB2       0.065700
     80 H36        -15.8350   -41.5710   -16.4600 hc         1 NB2       0.065700
     81 H37        -15.3700   -43.9750   -16.5270 h1         1 NB2       0.043200
     82 H38        -13.6090   -43.7190   -16.4080 h1         1 NB2       0.043200
     83 H39        -13.8330   -39.2870   -14.1850 hc         1 NB2       0.062200
     84 H40        -15.4150   -39.5380   -14.8940 hc         1 NB2       0.062200
     85 H41        -12.3330   -43.0630   -18.6720 hc         1 NB2       0.040256
     86 H42        -12.6160   -44.2730   -19.9290 hc         1 NB2       0.040256
     87 H43        -11.7420   -44.7230   -18.4560 hc         1 NB2       0.040256
     88 H44        -11.2300   -41.5010   -20.3910 hc         1 NB2       0.040256
     89 H45         -9.9050   -42.1020   -21.4150 hc         1 NB2       0.040256
     90 H46        -11.5540   -42.7020   -21.6410 hc         1 NB2       0.040256
     91 H47         -9.9360   -45.6470   -20.0580 hc         1 NB2       0.040256
     92 H48        -10.7450   -45.0160   -21.4930 hc         1 NB2       0.040256
     93 H49         -9.0690   -44.5510   -21.1520 hc         1 NB2       0.040256
     94 H50        -12.9290   -41.2640   -15.4990 hc         1 NB2       0.092700
     95 H51        -10.2020   -39.6340   -16.4220 h1         1 NB2       0.082700
     96 H52         -9.6270   -44.4680   -17.1580 hn         1 NB2       0.317500
     97 H53         -8.4960   -45.9880   -16.4820 hn         1 NB2       0.322500
     98 H54        -11.8630   -38.4160   -15.8690 hn         1 NB2       0.320500
     99 H55        -15.0190   -43.9800   -14.0100 hn         1 NB2       0.325500
    100 H56        -15.2900   -35.6390   -16.3550 hn         1 NB2       0.379400
    101 C6         -11.9750   -39.4530   -17.6320 c          1 NB2       0.597100
    102 C18         -7.8950   -44.9630   -18.1200 c          1 NB2       0.646100
@<TRIPOS>BOND
     1     1     8 1   
     2     1    25 1   
     3     1    34 1   
     4     1    45 1   
     5     2     3 1   
     6     2    37 1   
     7     2    46 1   
     8     2    47 1   
     9     3     4 1   
    10     3     9 1   
    11     3    48 1   
    12     4     9 1   
    13     4    31 1   
    14     4    49 1   
    15     5     6 1   
    16     5    37 1   
    17     5    38 2   
    18     6     7 1   
    19     6    32 1   
    20     6    50 1   
    21     7    27 1   
    22     7    28 1   
    23     7    29 1   
    24     8    36 2   
    25     8    51 1   
    26     9    10 1   
    27     9    11 1   
    28    10    52 1   
    29    10    53 1   
    30    10    54 1   
    31    11    55 1   
    32    11    56 1   
    33    11    57 1   
    34    12    13 1   
    35    12    17 1   
    36    12    18 1   
    37    12    33 1   
    38    13    14 1   
    39    13    58 1   
    40    13    59 1   
    41    14    15 1   
    42    14    60 1   
    43    14    61 1   
    44    15    16 1   
    45    15    62 1   
    46    15    63 1   
    47    16    17 1   
    48    16    64 1   
    49    16    65 1   
    50    17    66 1   
    51    17    67 1   
    52    18    44 1   
    53    18    68 1   
    54    18    69 1   
    55    19    20 1   
    56    19    21 1   
    57    19    22 1   
    58    19    44 1   
    59    20    70 1   
    60    20    71 1   
    61    20    72 1   
    62    21    73 1   
    63    21    74 1   
    64    21    75 1   
    65    22    76 1   
    66    22    77 1   
    67    22    78 1   
    68    23    24 1   
    69    23    30 1   
    70    23    79 1   
    71    23    80 1   
    72    24    35 1   
    73    24    81 1   
    74    24    82 1   
    75    25    30 1   
    76    25    83 1   
    77    25    84 1   
    78    26    30 1   
    79    26    35 1   
    80    26    42 2   
    81    27    85 1   
    82    27    86 1   
    83    27    87 1   
    84    28    88 1   
    85    28    89 1   
    86    28    90 1   
    87    29    91 1   
    88    29    92 1   
    89    29    93 1   
    90    30    94 1   
    91    31    37 1   
    92    31    95 1   
    93    31   101 1   
    94    32    96 1   
    95    32   102 1   
    96    33    97 1   
    97    33   102 1   
    98    34    98 1   
    99    34   101 1   
   100    35    99 1   
   101    36   100 1   
   102    39   102 2   
   103    40    44 2   
   104    41    44 2   
   105    43   101 2   
@<TRIPOS>SUBSTRUCTURE
     1 NB2         1 TEMP              0 ****  ****    0 ROOT
