@<TRIPOS>MOLECULE
NB3
   31    32     1     0     0
SMALL
abcg2


@<TRIPOS>ATOM
      1 C1          12.5750     8.6160    42.2590 c3         1 NB3       0.080900
      2 C5           8.0110     9.4220    43.6770 c3         1 NB3       0.092700
      3 C7           5.9340     8.1220    43.3640 c          1 NB3       0.602100
      4 C10          4.4430     6.2170    42.6370 c3         1 NB3      -0.079100
      5 C11          9.6400     7.3810    43.9830 ca         1 NB3      -0.215900
      6 C12          8.9970     6.3650    44.7010 ca         1 NB3      -0.031000
      7 C13          9.6940     5.2040    44.9530 ca         1 NB3      -0.152000
      8 C14         11.0200     5.0360    44.5020 ca         1 NB3      -0.073000
      9 C15         11.6770     6.0200    43.7970 ca         1 NB3      -0.135000
     10 C16         10.9630     7.1970    43.5450 ca         1 NB3      -0.041200
     11 C9           4.9500     7.6180    42.3290 c3         1 NB3      -0.156400
     12 O8           5.7860     7.9000    44.5590 o          1 NB3      -0.611100
     13 N6           6.9560     8.8450    42.8730 ns         1 NB3      -0.504900
     14 C4           9.3030     8.6880    43.5280 cc         1 NB3       0.323900
     15 N3          10.3160     9.2200    42.8890 nd         1 NB3      -0.518100
     16 N2          11.3150     8.3330    42.8970 na         1 NB3       0.076600
     17 H18         12.5310     9.6170    41.8410 h1         1 NB3       0.053700
     18 H19         13.3940     8.5690    42.9760 h1         1 NB3       0.053700
     19 H17         12.7710     7.9060    41.4550 h1         1 NB3       0.053700
     20 H20          8.1560    10.4630    43.3840 h1         1 NB3       0.073700
     21 H21          7.6860     9.4180    44.7170 h1         1 NB3       0.073700
     22 H24          3.7290     5.9000    41.8780 hc         1 NB3       0.042700
     23 H25          5.2580     5.4920    42.6480 hc         1 NB3       0.042700
     24 H1           3.9420     6.1760    43.6030 hc         1 NB3       0.042700
     25 H26          7.9800     6.4890    45.0500 ha         1 NB3       0.138000
     26 H27          9.2220     4.4020    45.5050 ha         1 NB3       0.116000
     27 H28         11.5340     4.1090    44.7190 ha         1 NB3       0.111000
     28 H29         12.6950     5.8820    43.4560 ha         1 NB3       0.118000
     29 H23          5.3910     7.6490    41.3310 hc         1 NB3       0.054700
     30 H30          4.1090     8.3190    42.3110 hc         1 NB3       0.054700
     31 H22          7.0360     8.9500    41.8740 hn         1 NB3       0.313500
@<TRIPOS>BOND
     1     1    16 1   
     2     1    17 1   
     3     1    18 1   
     4     1    19 1   
     5     2    13 1   
     6     2    14 1   
     7     2    20 1   
     8     2    21 1   
     9     3    11 1   
    10     3    12 2   
    11     3    13 1   
    12     4    11 1   
    13     4    22 1   
    14     4    23 1   
    15     4    24 1   
    16     5     6 ar  
    17     5    10 ar  
    18     5    14 1   
    19     6     7 ar  
    20     6    25 1   
    21     7     8 ar  
    22     7    26 1   
    23     8     9 ar  
    24     8    27 1   
    25     9    10 ar  
    26     9    28 1   
    27    10    16 1   
    28    11    29 1   
    29    11    30 1   
    30    13    31 1   
    31    14    15 2   
    32    15    16 1   
@<TRIPOS>SUBSTRUCTURE
     1 NB3         1 TEMP              0 ****  ****    0 ROOT
