@<TRIPOS>MOLECULE
NB3
   31    32     1     0     0
SMALL
No Charge or Current Charge


@<TRIPOS>ATOM
      1 C1          12.1780     8.1310    41.7450 c3         1 NB3       0.080900
      2 C5           7.9220     9.3390    44.0010 c3         1 NB3       0.092700
      3 C7           5.8590     7.9950    43.4420 c          1 NB3       0.602100
      4 C10          5.0130     6.4600    41.5970 c3         1 NB3      -0.079100
      5 C11          9.6990     7.4150    44.2710 ca         1 NB3      -0.215900
      6 C12          9.2030     6.6240    45.3180 ca         1 NB3      -0.031000
      7 C13          9.9590     5.4910    45.6910 ca         1 NB3      -0.152000
      8 C14         11.1690     5.1790    45.0220 ca         1 NB3      -0.073000
      9 C15         11.6350     5.9990    43.9710 ca         1 NB3      -0.135000
     10 C16         10.8590     7.1150    43.6290 ca         1 NB3      -0.041200
     11 C9           4.7800     7.7730    42.3760 c3         1 NB3      -0.156400
     12 O8           5.8870     7.3680    44.4900 o          1 NB3      -0.611100
     13 N6           6.7760     8.9770    43.1480 ns         1 NB3      -0.504900
     14 C4           9.2000     8.6170    43.6390 cc         1 NB3       0.323900
     15 N3          10.0140     9.0360    42.6540 nd         1 NB3      -0.518100
     16 N2          11.0350     8.0880    42.6690 na         1 NB3       0.076600
     17 H18         12.0910     8.9990    41.0800 h1         1 NB3       0.053700
     18 H19         13.1090     8.2070    42.3190 h1         1 NB3       0.053700
     19 H17         12.1960     7.2150    41.1420 h1         1 NB3       0.053700
     20 H20          8.0940    10.4190    43.9110 h1         1 NB3       0.073700
     21 H21          7.6790     9.1370    45.0520 h1         1 NB3       0.073700
     22 H24          4.2320     6.3190    40.8400 hc         1 NB3       0.042700
     23 H25          5.9850     6.4780    41.0890 hc         1 NB3       0.042700
     24 H1           4.9930     5.5970    42.2740 hc         1 NB3       0.042700
     25 H26          8.2720     6.8690    45.8260 ha         1 NB3       0.138000
     26 H27          9.6090     4.8510    46.4980 ha         1 NB3       0.116000
     27 H28         11.7420     4.3020    45.3180 ha         1 NB3       0.111000
     28 H29         12.5620     5.7690    43.4490 ha         1 NB3       0.118000
     29 H23          4.7810     8.6020    41.6580 hc         1 NB3       0.054700
     30 H30          3.8030     7.7110    42.8690 hc         1 NB3       0.054700
     31 H22          6.6740     9.4440    42.2540 hn         1 NB3       0.313500
@<TRIPOS>BOND
     1     1    16 1   
     2     1    17 1   
     3     1    18 1   
     4     1    19 1   
     5     2    13 1   
     6     2    14 1   
     7     2    20 1   
     8     2    21 1   
     9     3    11 1   
    10     3    12 2   
    11     3    13 1   
    12     4    11 1   
    13     4    22 1   
    14     4    23 1   
    15     4    24 1   
    16     5     6 ar  
    17     5    10 ar  
    18     5    14 1   
    19     6     7 ar  
    20     6    25 1   
    21     7     8 ar  
    22     7    26 1   
    23     8     9 ar  
    24     8    27 1   
    25     9    10 ar  
    26     9    28 1   
    27    10    16 1   
    28    11    29 1   
    29    11    30 1   
    30    13    31 1   
    31    14    15 2   
    32    15    16 1   
@<TRIPOS>SUBSTRUCTURE
     1 NB3         1 TEMP              0 ****  ****    0 ROOT
