@<TRIPOS>MOLECULE
NB4
   70    73     1     0     0
SMALL
abcg2


@<TRIPOS>ATOM
      1 C11         -4.9120     1.7410    -0.5270 c3         1 NB4      -0.053400
      2 C12         -4.9120     2.1260     0.9480 c5         1 NB4      -0.067700
      3 C13         -5.9460     3.2160     1.2450 c5         1 NB4      -0.077400
      4 C14         -6.0620     3.2330     2.7720 c5         1 NB4      -0.077900
      5 C02          0.9030    -0.8720    -1.9900 ca         1 NB4       0.207300
      6 C04          0.3780     1.2050    -1.2740 ca         1 NB4       0.356900
      7 C07         -2.5040     1.0730    -0.5340 c          1 NB4       0.596100
      8 C09         -3.8890     0.6920    -1.0120 c3         1 NB4      -0.125700
      9 C15         -5.6810     1.8060     3.2310 c5         1 NB4      -0.077900
     10 C16         -5.2970     1.0410     1.9540 c5         1 NB4      -0.077400
     11 C17         -4.1440    -0.7750    -0.6470 c3         1 NB4       0.150800
     12 C20         -5.1460    -2.8510    -1.3830 c3         1 NB4       0.372800
     13 C22          1.6630     1.3410    -0.7710 ca         1 NB4      -0.069000
     14 C24          2.5810     0.3120    -0.9690 ca         1 NB4       0.397900
     15 C27          4.6860     1.5540    -0.5640 c6         1 NB4       0.216800
     16 C28          5.6640     1.5430     0.5930 c6         1 NB4       0.157800
     17 C30          7.4750     0.3340     1.6070 c6         1 NB4       0.129800
     18 C31          8.3250    -0.9150     1.4970 c6         1 NB4       0.152600
     19 C33          6.5700    -2.0700     0.5050 c6         1 NB4       0.157600
     20 C34          5.6670    -0.8480     0.5820 c6         1 NB4       0.124500
     21 C36          4.6810    -0.8540    -0.5760 c6         1 NB4       0.221800
     22 F23          1.9580     2.4580    -0.0680 f          1 NB4      -0.178000
     23 N03          0.0020     0.0960    -1.9000 nb         1 NB4      -0.265000
     24 N05         -0.5300     2.2240    -1.1540 nu         1 NB4      -0.673100
     25 N18         -5.1780    -1.3910    -1.4580 n3         1 NB4      -0.503100
     26 N25          2.1540    -0.8080    -1.5720 nb         1 NB4      -0.279000
     27 N26          3.8700     0.3490    -0.5370 nh         1 NB4      -0.771300
     28 N29          6.4860     0.3530     0.5470 n3         1 NB4      -0.719600
     29 O08         -2.0130     0.6680     0.5020 o          1 NB4      -0.581100
     30 O19         -6.4390    -1.0140    -0.9480 oh         1 NB4      -0.479300
     31 O21         -4.0370    -3.3600    -2.0610 oh         1 NB4      -0.642000
     32 O32          7.5280    -2.0790     1.5350 os         1 NB4      -0.445000
     33 H43         -5.9120     1.4070    -0.8040 hc         1 NB4       0.044200
     34 H42         -4.7330     2.6520    -1.1070 hc         1 NB4       0.044200
     35 H44         -3.9250     2.5190     1.2250 hc         1 NB4       0.055700
     36 H46         -5.6720     4.1860     0.8260 hc         1 NB4       0.044200
     37 H45         -6.9020     2.9280     0.7940 hc         1 NB4       0.044200
     38 H48         -5.3710     3.9660     3.1940 hc         1 NB4       0.039950
     39 H47         -7.0610     3.5210     3.1020 hc         1 NB4       0.039950
     40 H39          0.1670    -1.9640    -3.6770 hc         1 NB4       0.059033
     41 H38          1.2320    -2.8980    -2.6160 hc         1 NB4       0.059033
     42 H37         -0.4320    -2.5330    -2.1300 hc         1 NB4       0.059033
     43 H10         -3.8970     0.7350    -2.1070 hc         1 NB4       0.068700
     44 H49         -4.8380     1.8410     3.9240 hc         1 NB4       0.039950
     45 H50         -6.4960     1.3130     3.7620 hc         1 NB4       0.039950
     46 H51         -6.1530     0.4820     1.5660 hc         1 NB4       0.044200
     47 H52         -4.4970     0.3200     2.1310 hc         1 NB4       0.044200
     48 H53         -3.2260    -1.3250    -0.8670 h1         1 NB4       0.060700
     49 H54         -4.3360    -0.9060     0.4230 h1         1 NB4       0.060700
     50 H1          -5.1740    -3.2040    -0.3410 h2         1 NB4       0.048700
     51 H58          5.2430     1.5870    -1.5090 h1         1 NB4       0.059200
     52 H59          6.3070     2.4240     0.5240 h1         1 NB4       0.045200
     53 H60          5.1050     1.6180     1.5410 h1         1 NB4       0.045200
     54 H61          7.0060     0.3750     2.6050 h1         1 NB4       0.042700
     55 H62          8.1160     1.2150     1.5160 h1         1 NB4       0.042700
     56 H63          8.9100    -0.8800     0.5670 h1         1 NB4       0.052200
     57 H64          9.0250    -0.9710     2.3320 h1         1 NB4       0.052200
     58 H66          5.9760    -2.9810     0.6040 h1         1 NB4       0.052700
     59 H65          7.0610    -2.0920    -0.4800 h1         1 NB4       0.052700
     60 H35          5.0850    -0.8960     1.5220 h1         1 NB4       0.048700
     61 H68          5.2260    -0.9190    -1.5270 h1         1 NB4       0.063700
     62 H67          4.0420    -1.7300    -0.5010 h1         1 NB4       0.063700
     63 H40         -0.3390     2.9620    -0.4940 hn         1 NB4       0.518000
     64 H3          -6.8930    -0.6240    -1.7020 ho         1 NB4       0.457000
     65 H4          -6.0480    -3.2070    -1.8850 h2         1 NB4       0.048700
     66 H2          -3.3390    -3.5480    -1.4290 ho         1 NB4       0.445000
     67 N06         -1.8510     1.9470    -1.3490 ns         1 NB4      -0.331300
     68 H57          4.0780     2.4500    -0.5160 h1         1 NB4       0.059200
     69 C01          0.4500    -2.1430    -2.6390 c3         1 NB4      -0.132400
     70 H41         -2.2070     2.1320    -2.2730 hn         1 NB4       0.341500
@<TRIPOS>BOND
     1     1     2 1   
     2     1     8 1   
     3     1    33 1   
     4     1    34 1   
     5     2     3 1   
     6     2    10 1   
     7     2    35 1   
     8     3     4 1   
     9     3    36 1   
    10     3    37 1   
    11     4     9 1   
    12     4    38 1   
    13     4    39 1   
    14     5    23 ar  
    15     5    26 ar  
    16     5    69 1   
    17     6    13 ar  
    18     6    23 ar  
    19     6    24 1   
    20     7     8 1   
    21     7    29 2   
    22     7    67 1   
    23     8    11 1   
    24     8    43 1   
    25     9    10 1   
    26     9    44 1   
    27     9    45 1   
    28    10    46 1   
    29    10    47 1   
    30    11    25 1   
    31    11    48 1   
    32    11    49 1   
    33    12    25 1   
    34    12    31 1   
    35    12    50 1   
    36    12    65 1   
    37    13    14 ar  
    38    13    22 1   
    39    14    26 ar  
    40    14    27 1   
    41    15    16 1   
    42    15    27 1   
    43    15    51 1   
    44    15    68 1   
    45    16    28 1   
    46    16    52 1   
    47    16    53 1   
    48    17    18 1   
    49    17    28 1   
    50    17    54 1   
    51    17    55 1   
    52    18    32 1   
    53    18    56 1   
    54    18    57 1   
    55    19    20 1   
    56    19    32 1   
    57    19    58 1   
    58    19    59 1   
    59    20    21 1   
    60    20    28 1   
    61    20    60 1   
    62    21    27 1   
    63    21    61 1   
    64    21    62 1   
    65    24    63 1   
    66    24    67 1   
    67    25    30 1   
    68    30    64 1   
    69    31    66 1   
    70    40    69 1   
    71    41    69 1   
    72    42    69 1   
    73    67    70 1   
@<TRIPOS>SUBSTRUCTURE
     1 NB4         1 TEMP              0 ****  ****    0 ROOT
