@<TRIPOS>MOLECULE
NB4
   70    73     1     0     0
SMALL
No Charge or Current Charge


@<TRIPOS>ATOM
      1 C11         -5.1800     2.0040    -0.3440 c3         1 NB4      -0.053400
      2 C12         -5.6030     2.2150     1.1400 c5         1 NB4      -0.067700
      3 C13         -6.5770     3.4060     1.3310 c5         1 NB4      -0.077400
      4 C14         -6.8740     3.2870     2.8440 c5         1 NB4      -0.077900
      5 C02          1.3260    -1.4120    -1.5040 ca         1 NB4       0.207300
      6 C04          0.6160     0.4870    -0.4310 ca         1 NB4       0.356900
      7 C07         -2.9120     0.8620     0.1140 c          1 NB4       0.596100
      8 C09         -4.2160     0.8240    -0.7090 c3         1 NB4      -0.125700
      9 C15         -7.1180     1.7610     3.0330 c5         1 NB4      -0.077900
     10 C16         -6.4380     1.0800     1.8020 c5         1 NB4      -0.077400
     11 C17         -4.7960    -0.6200    -0.6800 c3         1 NB4       0.150800
     12 C20         -5.9340    -2.4350    -1.9550 c3         1 NB4       0.372800
     13 C22          1.9480     0.7880    -0.0890 ca         1 NB4      -0.069000
     14 C24          2.9520    -0.1070    -0.5280 ca         1 NB4       0.397900
     15 C27          5.0050     1.3600    -0.6650 c6         1 NB4       0.216800
     16 C28          6.3210     1.6320     0.1320 c6         1 NB4       0.157800
     17 C30          8.5250     0.7340     0.8330 c6         1 NB4       0.129800
     18 C31          9.4600    -0.5120     0.8060 c6         1 NB4       0.152600
     19 C33          7.5610    -1.9830     0.5490 c6         1 NB4       0.157600
     20 C34          6.5810    -0.7700     0.5800 c6         1 NB4       0.124500
     21 C36          5.2750    -1.0840    -0.2210 c6         1 NB4       0.221800
     22 F23          2.2380     1.8860     0.6590 f          1 NB4      -0.178000
     23 N03          0.3040    -0.6130    -1.1420 nb         1 NB4      -0.265000
     24 N05         -0.4420     1.3170    -0.0290 nu         1 NB4      -0.673100
     25 N18         -5.6810    -0.9860    -1.8260 n3         1 NB4      -0.503100
     26 N25          2.6300    -1.2120    -1.2310 nb         1 NB4      -0.279000
     27 N26          4.3300     0.0840    -0.2500 nh         1 NB4      -0.771300
     28 N29          7.2620     0.4740     0.0790 n3         1 NB4      -0.719600
     29 O08         -2.8670     0.5710     1.3040 o          1 NB4      -0.581100
     30 O19         -6.9950    -0.3470    -1.6100 oh         1 NB4      -0.479300
     31 O21         -4.7310    -3.0270    -2.4220 oh         1 NB4      -0.642000
     32 O32          8.7600    -1.6800     1.3040 os         1 NB4      -0.445000
     33 H43         -6.0760     1.9440    -0.9700 hc         1 NB4       0.044200
     34 H42         -4.6820     2.9250    -0.6710 hc         1 NB4       0.044200
     35 H44         -4.6860     2.4000     1.7120 hc         1 NB4       0.055700
     36 H46         -6.1190     4.3680     1.0740 hc         1 NB4       0.044200
     37 H45         -7.4860     3.3000     0.7260 hc         1 NB4       0.044200
     38 H48         -6.0180     3.6260     3.4410 hc         1 NB4       0.039950
     39 H47         -7.7370     3.8890     3.1480 hc         1 NB4       0.039950
     40 H39          1.1220    -2.4730    -3.3780 hc         1 NB4       0.059033
     41 H38          1.6120    -3.5010    -2.0210 hc         1 NB4       0.059033
     42 H37         -0.0640    -2.9540    -2.1530 hc         1 NB4       0.059033
     43 H10         -3.9290     1.0080    -1.7520 hc         1 NB4       0.068700
     44 H49         -6.6940     1.4080     3.9800 hc         1 NB4       0.039950
     45 H50         -8.1890     1.5290     3.0610 hc         1 NB4       0.039950
     46 H51         -7.1930     0.6870     1.1110 hc         1 NB4       0.044200
     47 H52         -5.8130     0.2370     2.1150 hc         1 NB4       0.044200
     48 H53         -3.9290    -1.2950    -0.6920 h1         1 NB4       0.060700
     49 H54         -5.3020    -0.8120     0.2720 h1         1 NB4       0.060700
     50 H1          -6.2240    -2.8720    -0.9910 h2         1 NB4       0.048700
     51 H58          5.2530     1.3100    -1.7360 h1         1 NB4       0.059200
     52 H59          6.8000     2.5330    -0.2780 h1         1 NB4       0.045200
     53 H60          6.0540     1.8560     1.1760 h1         1 NB4       0.045200
     54 H61          8.3030     0.9850     1.8810 h1         1 NB4       0.042700
     55 H62          9.0610     1.5920     0.4000 h1         1 NB4       0.042700
     56 H63          9.8000    -0.7030    -0.2220 h1         1 NB4       0.052200
     57 H64         10.3460    -0.3290     1.4300 h1         1 NB4       0.052200
     58 H66          7.0780    -2.8680     0.9880 h1         1 NB4       0.052700
     59 H65          7.8360    -2.2220    -0.4890 h1         1 NB4       0.052700
     60 H35          6.2860    -0.6180     1.6290 h1         1 NB4       0.048700
     61 H68          5.5470    -1.3690    -1.2480 h1         1 NB4       0.063700
     62 H67          4.7890    -1.9550     0.2440 h1         1 NB4       0.063700
     63 H40         -0.2030     2.2240     0.3920 hn         1 NB4       0.518000
     64 H3          -7.1180     0.2500    -2.3860 ho         1 NB4       0.457000
     65 H4          -6.7280    -2.6160    -2.6910 h2         1 NB4       0.048700
     66 H2          -4.4530    -2.4570    -3.1680 ho         1 NB4       0.445000
     67 N06         -1.7710     1.2210    -0.6070 ns         1 NB4      -0.331300
     68 H57          4.3400     2.2240    -0.5340 h1         1 NB4       0.059200
     69 C01          0.9790    -2.6520    -2.3060 c3         1 NB4      -0.132400
     70 H41         -1.8930     1.4820    -1.5850 hn         1 NB4       0.341500
@<TRIPOS>BOND
     1     1     2 1   
     2     1     8 1   
     3     1    33 1   
     4     1    34 1   
     5     2     3 1   
     6     2    10 1   
     7     2    35 1   
     8     3     4 1   
     9     3    36 1   
    10     3    37 1   
    11     4     9 1   
    12     4    38 1   
    13     4    39 1   
    14     5    23 ar  
    15     5    26 ar  
    16     5    69 1   
    17     6    13 ar  
    18     6    23 ar  
    19     6    24 1   
    20     7     8 1   
    21     7    29 2   
    22     7    67 1   
    23     8    11 1   
    24     8    43 1   
    25     9    10 1   
    26     9    44 1   
    27     9    45 1   
    28    10    46 1   
    29    10    47 1   
    30    11    25 1   
    31    11    48 1   
    32    11    49 1   
    33    12    25 1   
    34    12    31 1   
    35    12    50 1   
    36    12    65 1   
    37    13    14 ar  
    38    13    22 1   
    39    14    26 ar  
    40    14    27 1   
    41    15    16 1   
    42    15    27 1   
    43    15    51 1   
    44    15    68 1   
    45    16    28 1   
    46    16    52 1   
    47    16    53 1   
    48    17    18 1   
    49    17    28 1   
    50    17    54 1   
    51    17    55 1   
    52    18    32 1   
    53    18    56 1   
    54    18    57 1   
    55    19    20 1   
    56    19    32 1   
    57    19    58 1   
    58    19    59 1   
    59    20    21 1   
    60    20    28 1   
    61    20    60 1   
    62    21    27 1   
    63    21    61 1   
    64    21    62 1   
    65    24    63 1   
    66    24    67 1   
    67    25    30 1   
    68    30    64 1   
    69    31    66 1   
    70    40    69 1   
    71    41    69 1   
    72    42    69 1   
    73    67    70 1   
@<TRIPOS>SUBSTRUCTURE
     1 NB4         1 TEMP              0 ****  ****    0 ROOT
