@<TRIPOS>MOLECULE
NB6
   31    32     1     0     0
SMALL
No Charge or Current Charge


@<TRIPOS>ATOM
      1 N1           8.2680     0.7630    20.9250 ns         1 NB6      -0.156000
      2 C4           7.7130     1.9830    18.8130 ca         1 NB6       0.326900
      3 C5           7.5160     0.9100    19.7220 ca         1 NB6      -0.077000
      4 C6           9.3820     1.4340    21.4130 c          1 NB6       0.600100
      5 C7           9.8680     0.9380    22.7810 c3         1 NB6      -0.110100
      6 C8          11.0400    -0.0230    22.6160 ca         1 NB6      -0.071300
      7 C10         13.4440    -0.4260    22.4650 ca         1 NB6      -0.106000
      8 C13         10.8080    -1.4030    22.4420 ca         1 NB6      -0.070000
      9 C12         11.8900    -2.2860    22.2810 ca         1 NB6      -0.006900
     10 C11         13.2080    -1.8010    22.2920 ca         1 NB6      -0.077000
     11 C9          12.3640     0.4600    22.6250 ca         1 NB6      -0.079000
     12 O            9.9610     2.3290    20.8090 o          1 NB6      -0.559100
     13 C1           6.5220    -0.0480    19.4190 ca         1 NB6      -0.089300
     14 C            6.2400    -1.2330    20.3370 c3         1 NB6      -0.051800
     15 N            7.0000     2.1320    17.6700 nb         1 NB6      -0.644000
     16 C3           6.0570     1.2070    17.3900 ca         1 NB6       0.313900
     17 C2           5.7880     0.1140    18.2290 ca         1 NB6      -0.142000
     18 H1           7.9260     0.0310    21.5350 hn         1 NB6       0.149000
     19 H2           8.4490     2.7610    18.9960 h4         1 NB6       0.049100
     20 H3          10.1800     1.8030    23.3780 hc         1 NB6       0.066700
     21 H4           9.0520     0.4180    23.2960 hc         1 NB6       0.066700
     22 H5          14.4640    -0.0470    22.4730 ha         1 NB6       0.120000
     23 H6           9.7930    -1.7920    22.4300 ha         1 NB6       0.128000
     24 H7          14.0430    -2.4860    22.1670 ha         1 NB6       0.131000
     25 H8          12.5570     1.5230    22.7540 ha         1 NB6       0.116000
     26 H9           7.1370    -1.8500    20.4730 hc         1 NB6       0.045700
     27 H10          5.9070    -0.8960    21.3260 hc         1 NB6       0.045700
     28 H11          5.4550    -1.8830    19.9320 hc         1 NB6       0.045700
     29 H12          5.4970     1.3480    16.4660 h4         1 NB6       0.022100
     30 H13          5.0140    -0.5950    17.9490 ha         1 NB6       0.121000
     31 Br          11.5640    -4.1550    22.0430 br         1 NB6      -0.110100
@<TRIPOS>BOND
     1     1     3 1   
     2     1     4 1   
     3     1    18 1   
     4     2     3 ar  
     5     2    15 ar  
     6     2    19 1   
     7     3    13 ar  
     8     4     5 1   
     9     4    12 2   
    10     5     6 1   
    11     5    20 1   
    12     5    21 1   
    13     6     8 ar  
    14     6    11 ar  
    15     7    10 ar  
    16     7    11 ar  
    17     7    22 1   
    18     8     9 ar  
    19     8    23 1   
    20     9    10 ar  
    21     9    31 1   
    22    10    24 1   
    23    11    25 1   
    24    13    14 1   
    25    13    17 ar  
    26    14    26 1   
    27    14    27 1   
    28    14    28 1   
    29    15    16 ar  
    30    16    17 ar  
    31    16    29 1   
    32    17    30 1   
@<TRIPOS>SUBSTRUCTURE
     1 NB6         1 TEMP              0 ****  ****    0 ROOT
