@<TRIPOS>MOLECULE
NB6
   31    32     1     0     0
SMALL
abcg2


@<TRIPOS>ATOM
      1 N1           8.0420    -0.1120    20.6020 ns         1 NB6      -0.156000
      2 C4           7.9420     0.7360    18.2990 ca         1 NB6       0.326900
      3 C5           7.3280     0.4150    19.5120 ca         1 NB6      -0.077000
      4 C6           9.3660     0.0460    20.8960 c          1 NB6       0.600100
      5 C7           9.7670    -0.6080    22.2180 c3         1 NB6      -0.110100
      6 C8          11.2540    -0.6600    22.4220 ca         1 NB6      -0.071300
      7 C10         13.2960     0.3120    23.2770 ca         1 NB6      -0.106000
      8 C13         11.9930    -1.7210    21.8970 ca         1 NB6      -0.070000
      9 C12         13.3690    -1.7430    22.0690 ca         1 NB6      -0.006900
     10 C11         14.0400    -0.7400    22.7540 ca         1 NB6      -0.077000
     11 C9          11.9170     0.3520    23.1130 ca         1 NB6      -0.079000
     12 O           10.1490     0.6650    20.1930 o          1 NB6      -0.559100
     13 C1           5.9400     0.5950    19.6390 ca         1 NB6      -0.089300
     14 C            5.2170     0.2670    20.9110 c3         1 NB6      -0.051800
     15 N            7.2770     1.2220    17.2480 nb         1 NB6      -0.644000
     16 C3           5.9600     1.3990    17.3700 ca         1 NB6       0.313900
     17 C2           5.2650     1.0960    18.5320 ca         1 NB6      -0.142000
     18 H1           7.4930    -0.5980    21.2950 hn         1 NB6       0.149000
     19 H2           9.0050     0.5940    18.1820 h4         1 NB6       0.049100
     20 H3           9.2940    -0.0330    23.0190 hc         1 NB6       0.066700
     21 H4           9.3360    -1.6110    22.2530 hc         1 NB6       0.066700
     22 H5          13.8020     1.1030    23.8170 ha         1 NB6       0.120000
     23 H6          11.4940    -2.5170    21.3610 ha         1 NB6       0.128000
     24 H7          15.1130    -0.7790    22.8800 ha         1 NB6       0.131000
     25 H8          11.3470     1.1770    23.5240 ha         1 NB6       0.116000
     26 H9           5.2860    -0.8000    21.1450 hc         1 NB6       0.045700
     27 H10          5.6430     0.8110    21.7580 hc         1 NB6       0.045700
     28 H11          4.1620     0.5250    20.8300 hc         1 NB6       0.045700
     29 H12          5.4380     1.7930    16.5050 h4         1 NB6       0.022100
     30 H13          4.1950     1.2540    18.5810 ha         1 NB6       0.121000
     31 BR          14.3740    -3.2080    21.3430 br         1 NB6      -0.110100
@<TRIPOS>BOND
     1     1     3 1   
     2     1     4 1   
     3     1    18 1   
     4     2     3 ar  
     5     2    15 ar  
     6     2    19 1   
     7     3    13 ar  
     8     4     5 1   
     9     4    12 2   
    10     5     6 1   
    11     5    20 1   
    12     5    21 1   
    13     6     8 ar  
    14     6    11 ar  
    15     7    10 ar  
    16     7    11 ar  
    17     7    22 1   
    18     8     9 ar  
    19     8    23 1   
    20     9    10 ar  
    21     9    31 1   
    22    10    24 1   
    23    11    25 1   
    24    13    14 1   
    25    13    17 ar  
    26    14    26 1   
    27    14    27 1   
    28    14    28 1   
    29    15    16 ar  
    30    16    17 ar  
    31    16    29 1   
    32    17    30 1   
@<TRIPOS>SUBSTRUCTURE
     1 NB6         1 TEMP              0 ****  ****    0 ROOT
