@<TRIPOS>MOLECULE
NB7
   31    32     1     0     0
SMALL
abcg2


@<TRIPOS>ATOM
      1 CAA         -3.5620    -8.9090    21.8210 ca         1 NB7       0.264000
      2 CAB         -3.0890    -9.3210    23.0530 ca         1 NB7      -0.177000
      3 CAC         -1.7510    -9.1150    23.3660 ca         1 NB7      -0.028000
      4 CAD         -0.8980    -8.5030    22.4530 ca         1 NB7      -0.145000
      5 CAE         -1.3830    -8.0940    21.2210 ca         1 NB7       0.003000
      6 CAF         -2.7260    -8.2900    20.8910 ca         1 NB7      -0.365500
      7 CAJ         -5.0540   -10.5400    17.9520 c          1 NB7       0.633700
      8 CAK         -5.7650   -11.7420    18.4800 ca         1 NB7      -0.151600
      9 CAL         -6.4510   -13.2050    20.2740 ca         1 NB7      -0.118000
     10 CAM         -5.7500   -12.0890    19.8340 ca         1 NB7      -0.069500
     11 CAN         -6.4940   -12.5200    17.5780 ca         1 NB7      -0.069500
     12 CAO         -7.1820   -13.6420    18.0190 ca         1 NB7      -0.118000
     13 CAP         -7.1620   -13.9860    19.3690 ca         1 NB7      -0.086000
     14 FAT         -4.8590    -9.1290    21.5390 f          1 NB7      -0.152000
     15 NAH         -3.1770    -9.0990    18.2800 n7         1 NB7      -0.581300
     16 NAI         -3.9160   -10.2080    18.6380 ns         1 NB7      -0.377300
     17 OAQ         -5.4540    -9.9060    16.9880 o          1 NB7      -0.531100
     18 OAR         -2.3160    -6.8460    18.7530 o          1 NB7      -0.512500
     19 OAS         -4.6700    -7.4110    19.3730 o          1 NB7      -0.512500
     20 SAG         -3.2820    -7.7690    19.2900 sy         1 NB7       1.163600
     21 H1          -3.7710    -9.7950    23.7460 ha         1 NB7       0.138000
     22 H2          -1.3770    -9.4370    24.3290 ha         1 NB7       0.124000
     23 H3           0.1420    -8.3410    22.6990 ha         1 NB7       0.128000
     24 H4          -0.7330    -7.6140    20.5030 ha         1 NB7       0.142000
     25 H5          -6.4470   -13.4600    21.3260 ha         1 NB7       0.119000
     26 H6          -5.2230   -11.4770    20.5530 ha         1 NB7       0.124500
     27 H7          -6.5090   -12.2420    16.5330 ha         1 NB7       0.124500
     28 H8          -7.7350   -14.2470    17.3120 ha         1 NB7       0.119000
     29 H9          -7.7040   -14.8570    19.7130 ha         1 NB7       0.117000
     30 H10         -2.2180    -9.3090    18.0180 hn         1 NB7       0.472000
     31 H11         -3.5190   -10.8390    19.3200 hn         1 NB7       0.320500
@<TRIPOS>BOND
     1     1     2 ar  
     2     1     6 ar  
     3     1    14 1   
     4     2     3 ar  
     5     2    21 1   
     6     3     4 ar  
     7     3    22 1   
     8     4     5 ar  
     9     4    23 1   
    10     5     6 ar  
    11     5    24 1   
    12     6    20 1   
    13     7     8 1   
    14     7    16 1   
    15     7    17 2   
    16     8    10 ar  
    17     8    11 ar  
    18     9    10 ar  
    19     9    13 ar  
    20     9    25 1   
    21    10    26 1   
    22    11    12 ar  
    23    11    27 1   
    24    12    13 ar  
    25    12    28 1   
    26    13    29 1   
    27    15    16 1   
    28    15    20 1   
    29    15    30 1   
    30    16    31 1   
    31    18    20 2   
    32    19    20 2   
@<TRIPOS>SUBSTRUCTURE
     1 NB7         1 TEMP              0 ****  ****    0 ROOT
