@<TRIPOS>MOLECULE
NB7
   31    32     1     0     0
SMALL
No Charge or Current Charge


@<TRIPOS>ATOM
      1 CAA         -4.1740    -8.1610    21.1480 ca         1 NB7       0.264000
      2 CAB         -4.4860    -8.8240    22.3450 ca         1 NB7      -0.177000
      3 CAC         -3.5250    -9.6260    22.9830 ca         1 NB7      -0.028000
      4 CAD         -2.2480    -9.7640    22.4160 ca         1 NB7      -0.145000
      5 CAE         -1.9290    -9.1040    21.2170 ca         1 NB7       0.003000
      6 CAF         -2.8930    -8.2930    20.5780 ca         1 NB7      -0.365500
      7 CAJ         -5.0810   -10.2130    18.3390 c          1 NB7       0.633700
      8 CAK         -5.3850   -11.5890    18.9010 ca         1 NB7      -0.151600
      9 CAL         -4.7040   -13.6810    19.9840 ca         1 NB7      -0.118000
     10 CAM         -4.3800   -12.4150    19.4660 ca         1 NB7      -0.069500
     11 CAN         -6.7170   -12.0670    18.8810 ca         1 NB7      -0.069500
     12 CAO         -7.0350   -13.3340    19.4000 ca         1 NB7      -0.118000
     13 CAP         -6.0290   -14.1420    19.9510 ca         1 NB7      -0.086000
     14 FAT         -5.1350    -7.4170    20.5580 f          1 NB7      -0.152000
     15 NAH         -3.2680    -8.5210    17.9280 n7         1 NB7      -0.581300
     16 NAI         -3.7370    -9.8510    18.2750 ns         1 NB7      -0.377300
     17 OAQ         -5.9680    -9.4510    17.9730 o          1 NB7      -0.531100
     18 OAR         -1.0570    -7.6380    18.7680 o          1 NB7      -0.512500
     19 OAS         -3.1810    -6.1940    18.9340 o          1 NB7      -0.512500
     20 SAG         -2.4940    -7.4880    19.0190 sy         1 NB7       1.163600
     21 H1          -5.4780    -8.7190    22.7760 ha         1 NB7       0.138000
     22 H2          -3.7700   -10.1400    23.9100 ha         1 NB7       0.124000
     23 H3          -1.5030   -10.3870    22.9060 ha         1 NB7       0.128000
     24 H4          -0.9340    -9.2320    20.7930 ha         1 NB7       0.142000
     25 H5          -3.9250   -14.3050    20.4160 ha         1 NB7       0.119000
     26 H6          -3.3440   -12.0910    19.5220 ha         1 NB7       0.124500
     27 H7          -7.5140   -11.4570    18.4600 ha         1 NB7       0.124500
     28 H8          -8.0630   -13.6880    19.3750 ha         1 NB7       0.119000
     29 H9          -6.2760   -15.1230    20.3540 ha         1 NB7       0.117000
     30 H10         -2.7190    -8.4630    17.0660 hn         1 NB7       0.472000
     31 H11         -3.0800   -10.5650    18.5790 hn         1 NB7       0.320500
@<TRIPOS>BOND
     1     1     2 ar  
     2     1     6 ar  
     3     1    14 1   
     4     2     3 ar  
     5     2    21 1   
     6     3     4 ar  
     7     3    22 1   
     8     4     5 ar  
     9     4    23 1   
    10     5     6 ar  
    11     5    24 1   
    12     6    20 1   
    13     7     8 1   
    14     7    16 1   
    15     7    17 2   
    16     8    10 ar  
    17     8    11 ar  
    18     9    10 ar  
    19     9    13 ar  
    20     9    25 1   
    21    10    26 1   
    22    11    12 ar  
    23    11    27 1   
    24    12    13 ar  
    25    12    28 1   
    26    13    29 1   
    27    15    16 1   
    28    15    20 1   
    29    15    30 1   
    30    16    31 1   
    31    18    20 2   
    32    19    20 2   
@<TRIPOS>SUBSTRUCTURE
     1 NB7         1 TEMP              0 ****  ****    0 ROOT
