@<TRIPOS>MOLECULE
NB8
   51    53     1     0     0
SMALL
bcc


@<TRIPOS>ATOM
      1 O2P         -2.4540    -3.1450     1.8400 o          1 NB8      -0.795500
      2 P           -2.5910    -3.2280     0.3590 p5         1 NB8       1.412800
      3 O1P         -3.7080    -3.9230    -0.3360 o          1 NB8      -0.795500
      4 O3P         -2.5060    -1.6410    -0.2650 os         1 NB8      -0.548500
      5 C           -3.4650    -0.7620    -0.0270 c          1 NB8       0.707100
      6 O           -4.4620    -0.9990     0.6070 o          1 NB8      -0.541000
      7 CA          -3.1360     0.6000    -0.6110 c3         1 NB8       0.101500
      8 N           -4.3110     1.4350    -0.5970 n8         1 NB8      -0.883800
      9 CB          -1.9160     1.1580     0.1520 c3         1 NB8      -0.194400
     10 CG          -1.5480     2.5240    -0.3790 c          1 NB8       0.664100
     11 OD1         -1.2010     2.7110    -1.5330 o          1 NB8      -0.590100
     12 ND2         -1.6590     3.4980     0.5360 ns         1 NB8      -0.460400
     13 OAJ         -1.4470     4.8010     0.2110 oh         1 NB8      -0.417100
     14 O5          -1.2140    -3.7390    -0.3370 os         1 NB8      -0.561200
     15 C5           0.0420    -3.7340     0.3150 c3         1 NB8       0.209400
     16 C4           1.0910    -3.1590    -0.6140 c5         1 NB8       0.124100
     17 C3           2.5230    -3.3830    -0.1220 c5         1 NB8       0.082100
     18 O3           3.3480    -3.5990    -1.2370 oh         1 NB8      -0.582800
     19 C2           2.8380    -2.0410     0.5400 c5         1 NB8       0.050100
     20 O2           4.1920    -1.7150     0.6150 oh         1 NB8      -0.581800
     21 C1           2.1190    -1.0910    -0.4100 c5         1 NB8       0.264800
     22 O4           0.9220    -1.7410    -0.7380 os         1 NB8      -0.376600
     23 N9           1.8440     0.2050     0.1460 na         1 NB8      -0.247000
     24 C9           1.9980     1.3970    -0.5050 ca         1 NB8       0.469800
     25 N3           2.4090     1.6090    -1.7480 nb         1 NB8      -0.706000
     26 C10          2.4420     2.8940    -2.0480 ca         1 NB8       0.703900
     27 N1           2.1280     3.9250    -1.2660 nb         1 NB8      -0.793000
     28 C6           1.7150     3.6920    -0.0260 ca         1 NB8       0.724200
     29 N6           1.3330     4.7500     0.7480 nv         1 NB8      -0.929500
     30 C7           1.6340     2.3680     0.4170 ca         1 NB8      -0.211200
     31 N7           1.2500     1.7930     1.6010 nc         1 NB8      -0.575100
     32 C8           1.3860     0.5180     1.4000 cd         1 NB8       0.432700
     33 HA          -2.8380     0.4530    -1.6530 h1         1 NB8       0.100700
     34 HN1         -4.5630     1.6950     0.3490 hn         1 NB8       0.343300
     35 HN2         -4.1330     2.2930    -1.1020 hn         1 NB8       0.343300
     36 HB1C        -2.1340     1.1910     1.2230 hc         1 NB8       0.077700
     37 HB2C        -1.0580     0.4970     0.0180 hc         1 NB8       0.077700
     38 HD2         -1.9730     3.3260     1.4800 hn         1 NB8       0.332500
     39 HAJ         -0.4920     4.9540     0.3880 ho         1 NB8       0.420000
     40 H5'1         0.0130    -3.1780     1.2560 h1         1 NB8       0.029200
     41 H5'2         0.3150    -4.7660     0.5520 h1         1 NB8       0.029200
     42 H4           0.9740    -3.6210    -1.6010 h1         1 NB8       0.104700
     43 H3           2.5870    -4.2130     0.5920 h1         1 NB8       0.053700
     44 HB           4.2610    -3.4500    -0.9660 ho         1 NB8       0.409000
     45 H2           2.3590    -2.0190     1.5270 h1         1 NB8       0.055700
     46 HC           4.5690    -2.1230     1.4010 ho         1 NB8       0.409000
     47 H1           2.7380    -0.9110    -1.2970 h2         1 NB8       0.108700
     48 H8           1.1660    -0.2450     2.1320 h5         1 NB8       0.074800
     49 H7           2.7690     3.1470    -3.0500 h5         1 NB8       0.046100
     50 H61N         1.7090     5.6440     0.4680 hn         1 NB8       0.415800
     51 H62N         1.3610     4.6050     1.7480 hn         1 NB8       0.415800
@<TRIPOS>BOND
     1     1     2 1   
     2     2     3 1   
     3     2     4 1   
     4     2    14 1   
     5     4     5 1   
     6     5     6 2   
     7     5     7 1   
     8     7     8 1   
     9     7     9 1   
    10     7    33 1   
    11     8    34 1   
    12     8    35 1   
    13     9    10 1   
    14     9    36 1   
    15     9    37 1   
    16    10    11 2   
    17    10    12 1   
    18    12    13 1   
    19    12    38 1   
    20    13    39 1   
    21    14    15 1   
    22    15    16 1   
    23    15    40 1   
    24    15    41 1   
    25    16    17 1   
    26    16    22 1   
    27    16    42 1   
    28    17    18 1   
    29    17    19 1   
    30    17    43 1   
    31    18    44 1   
    32    19    20 1   
    33    19    21 1   
    34    19    45 1   
    35    20    46 1   
    36    21    22 1   
    37    21    23 1   
    38    21    47 1   
    39    23    24 1   
    40    23    32 1   
    41    24    25 ar  
    42    24    30 ar  
    43    25    26 ar  
    44    26    27 ar  
    45    26    49 1   
    46    27    28 ar  
    47    28    29 1   
    48    28    30 ar  
    49    29    50 1   
    50    29    51 1   
    51    30    31 1   
    52    31    32 2   
    53    32    48 1   
@<TRIPOS>SUBSTRUCTURE
     1 NB8         1 TEMP              0 ****  ****    0 ROOT
