@<TRIPOS>MOLECULE
NB8
   51    53     1     0     0
SMALL
No Charge or Current Charge


@<TRIPOS>ATOM
      1 O2P         -2.6920    -3.4580     1.9580 o          1 NB8      -0.795500
      2 P           -2.7120    -3.4520     0.4650 p5         1 NB8       1.412800
      3 O1P         -3.8980    -4.1590    -0.1030 o          1 NB8      -0.795500
      4 O3P         -2.5480    -1.9910    -0.1550 os         1 NB8      -0.548500
      5 C           -3.4980    -1.0510     0.0650 c          1 NB8       0.658100
      6 O           -4.5230    -1.2270     0.7160 o          1 NB8      -0.492000
      7 CA          -3.1340     0.3260    -0.6140 c3         1 NB8       0.101500
      8 N           -4.2750     1.2950    -0.7920 n8         1 NB8      -0.994200
      9 CB          -1.9700     1.0140     0.1370 c3         1 NB8      -0.194400
     10 CG          -1.3990     2.2310    -0.5920 c          1 NB8       0.597100
     11 OD1         -0.8760     2.1500    -1.6960 o          1 NB8      -0.590100
     12 ND2         -1.4760     3.4240     0.1180 ns         1 NB8      -0.393400
     13 OAJ         -0.9770     4.6720    -0.4190 oh         1 NB8      -0.456100
     14 O5          -1.3680    -4.1230    -0.1210 os         1 NB8      -0.584400
     15 C5          -0.0840    -3.8810     0.4800 c3         1 NB8       0.232600
     16 C4           0.7890    -3.0330    -0.4850 c5         1 NB8       0.147300
     17 C3           2.3370    -3.3140    -0.3600 c5         1 NB8       0.105300
     18 O3           2.9890    -3.3970    -1.6310 oh         1 NB8      -0.705000
     19 C2           2.8420    -2.0400     0.3740 c5         1 NB8       0.073300
     20 O2           4.2530    -1.8300     0.1500 oh         1 NB8      -0.704000
     21 C1           1.9090    -0.9920    -0.3010 c5         1 NB8       0.317300
     22 O4           0.6240    -1.6190    -0.1890 os         1 NB8      -0.423000
     23 N9           1.8590     0.3330     0.3000 na         1 NB8      -0.276300
     24 C9           2.1620     1.5360    -0.2800 ca         1 NB8       0.141500
     25 N3           2.7030     1.8230    -1.4810 nb         1 NB8      -0.180000
     26 C10          2.8340     3.1390    -1.7700 ca         1 NB8       0.177900
     27 N1           2.4670     4.1800    -0.9860 nb         1 NB8      -0.267000
     28 C6           1.9340     3.8610     0.2030 ca         1 NB8       0.395900
     29 N6           1.4970     4.9060     0.9640 nv         1 NB8      -1.039900
     30 C7           1.7790     2.5160     0.6000 ca         1 NB8      -0.080600
     31 N7           1.2520     1.9990     1.7790 nc         1 NB8      -0.575100
     32 C8           1.3280     0.6720     1.5570 cd         1 NB8       0.432700
     33 HA          -2.7640     0.0550    -1.6150 h1         1 NB8       0.100700
     34 HN1         -4.6770     1.5300     0.1250 hn         1 NB8       0.398500
     35 HN2         -3.9310     2.1900    -1.1590 hn         1 NB8       0.398500
     36 HB1C        -2.2920     1.2880     1.1480 hc         1 NB8       0.077700
     37 HB2C        -1.1570     0.2870     0.2260 hc         1 NB8       0.077700
     38 HD2         -1.9460     3.4670     1.0210 hn         1 NB8       0.332500
     39 HAJ         -0.1260     4.8080     0.0870 ho         1 NB8       0.459000
     40 H5'1        -0.1630    -3.3670     1.4470 h1         1 NB8       0.029200
     41 H5'2         0.4130    -4.8430     0.6570 h1         1 NB8       0.029200
     42 H4           0.4560    -3.2260    -1.5140 h1         1 NB8       0.104700
     43 H3           2.5450    -4.2170     0.2320 h1         1 NB8       0.053700
     44 HB           3.8600    -2.9560    -1.4620 ho         1 NB8       0.508000
     45 H2           2.6270    -2.1070     1.4500 h1         1 NB8       0.055700
     46 HC           4.5410    -1.0850     0.7310 ho         1 NB8       0.508000
     47 H1           2.1710    -0.8600    -1.3590 h2         1 NB8       0.108700
     48 H8           0.9870    -0.0970     2.2400 h5         1 NB8       0.074800
     49 H7           3.2700     3.3840    -2.7370 h5         1 NB8       0.046100
     50 H61N         1.9450     5.8050     0.7950 hn         1 NB8       0.471000
     51 H62N         1.3370     4.6920     1.9480 hn         1 NB8       0.471000
@<TRIPOS>BOND
     1     1     2 1   
     2     2     3 1   
     3     2     4 1   
     4     2    14 1   
     5     4     5 1   
     6     5     6 2   
     7     5     7 1   
     8     7     8 1   
     9     7     9 1   
    10     7    33 1   
    11     8    34 1   
    12     8    35 1   
    13     9    10 1   
    14     9    36 1   
    15     9    37 1   
    16    10    11 2   
    17    10    12 1   
    18    12    13 1   
    19    12    38 1   
    20    13    39 1   
    21    14    15 1   
    22    15    16 1   
    23    15    40 1   
    24    15    41 1   
    25    16    17 1   
    26    16    22 1   
    27    16    42 1   
    28    17    18 1   
    29    17    19 1   
    30    17    43 1   
    31    18    44 1   
    32    19    20 1   
    33    19    21 1   
    34    19    45 1   
    35    20    46 1   
    36    21    22 1   
    37    21    23 1   
    38    21    47 1   
    39    23    24 1   
    40    23    32 1   
    41    24    25 ar  
    42    24    30 ar  
    43    25    26 ar  
    44    26    27 ar  
    45    26    49 1   
    46    27    28 ar  
    47    28    29 1   
    48    28    30 ar  
    49    29    50 1   
    50    29    51 1   
    51    30    31 1   
    52    31    32 2   
    53    32    48 1   
@<TRIPOS>SUBSTRUCTURE
     1 NB8         1 TEMP              0 ****  ****    0 ROOT
