@<TRIPOS>MOLECULE
NB9
   61    63     1     0     0
SMALL
abcg2


@<TRIPOS>ATOM
      1 C01         55.0250   112.4500    73.8080 c6         1 NB9      -0.117400
      2 C02         54.9820   110.9290    73.8350 c6         1 NB9       0.098500
      3 C04         53.2660   110.8600    72.1400 c6         1 NB9       0.098500
      4 C05         53.2650   112.3790    72.0210 c6         1 NB9      -0.117400
      5 C06         54.6010   112.9850    72.4480 c6         1 NB9       0.192300
      6 C09         56.2830   115.2500    71.0090 c          1 NB9       0.697000
      7 C14         51.4340   109.4630    74.0810 c3         1 NB9       0.037700
      8 C15         50.4850   110.3220    74.9280 c3         1 NB9      -0.025100
      9 C16         50.5870   111.7910    74.6290 ca         1 NB9      -0.138300
     10 C17         49.8620   112.3630    73.5850 ca         1 NB9      -0.062500
     11 C18         49.9600   113.7120    73.2870 ca         1 NB9      -0.172000
     12 C19         50.8040   114.5300    74.0370 ca         1 NB9       0.159100
     13 C20         51.5290   113.9770    75.0890 ca         1 NB9      -0.172000
     14 C21         51.4150   112.6240    75.3740 ca         1 NB9      -0.062500
     15 C26         51.5990   105.6950    74.1990 ca         1 NB9      -0.124600
     16 C27         52.5380   104.7310    73.8480 ca         1 NB9      -0.081000
     17 C28         52.4050   103.4250    74.2900 ca         1 NB9      -0.091000
     18 C29         51.3170   103.0490    75.0760 ca         1 NB9      -0.132900
     19 C30         50.3630   104.0100    75.4030 ca         1 NB9      -0.091000
     20 C31         50.5040   105.3190    74.9760 ca         1 NB9      -0.081000
     21 C32         51.1370   101.6470    75.5500 ce         1 NB9       0.662800
     22 N03         53.6520   110.4540    73.4810 n          1 NB9      -0.378800
     23 N23         51.2210   108.0720    74.4150 ns         1 NB9      -0.483900
     24 N33         49.9520   101.2350    75.7850 n2         1 NB9      -0.831100
     25 N34         52.2820   100.9090    75.6350 nv         1 NB9      -1.077200
     26 O07         54.5100   114.3890    72.5350 os         1 NB9      -0.459000
     27 O10         57.1210   114.7850    71.8010 o          1 NB9      -0.732000
     28 O11         56.4980   115.8700    69.9480 o          1 NB9      -0.732000
     29 O22         50.8770   115.8340    73.7040 oh         1 NB9      -0.531100
     30 O25         52.4660   107.3170    72.7000 o          1 NB9      -0.592100
     31 H1          56.0370   112.7900    74.0370 hc         1 NB9       0.055950
     32 H2          54.3620   112.8440    74.5840 hc         1 NB9       0.055950
     33 H3          55.6960   110.5200    73.1110 h1         1 NB9       0.050700
     34 H4          55.2580   110.5470    74.8130 h1         1 NB9       0.050700
     35 H5          52.2940   110.4600    71.8710 h1         1 NB9       0.050700
     36 H6          53.9850   110.4260    71.4370 h1         1 NB9       0.050700
     37 H7          53.0320   112.6520    70.9890 hc         1 NB9       0.055950
     38 H8          52.4710   112.7820    72.6520 hc         1 NB9       0.055950
     39 H9          55.3680   112.6920    71.7170 h1         1 NB9       0.058700
     40 H10         54.3440   116.0770    71.4530 h1         1 NB9       0.020700
     41 H11         54.2800   114.6250    70.4810 h1         1 NB9       0.020700
     42 H12         51.1730   109.6000    73.0340 h1         1 NB9       0.083700
     43 H13         49.4680   109.9720    74.7370 hc         1 NB9       0.051200
     44 H14         50.6910   110.1410    75.9860 hc         1 NB9       0.051200
     45 H15         49.2020   111.7410    72.9920 ha         1 NB9       0.113000
     46 H16         49.3870   114.1350    72.4720 ha         1 NB9       0.122500
     47 H17         52.1850   114.6000    75.6870 ha         1 NB9       0.122500
     48 H18         51.9890   112.2130    76.1970 ha         1 NB9       0.113000
     49 H19         53.3840   105.0000    73.2300 ha         1 NB9       0.128500
     50 H20         53.1500   102.6970    73.9960 ha         1 NB9       0.127000
     51 H21         49.5070   103.7280    75.9990 ha         1 NB9       0.127000
     52 H22         49.7360   106.0350    75.2390 ha         1 NB9       0.128500
     53 H23         50.8770   107.8670    75.3410 hn         1 NB9       0.317500
     54 H24         49.9550   100.2770    76.1250 hn         1 NB9       0.367400
     55 H25         53.1510   101.3830    75.8180 hn         1 NB9       0.461000
     56 H26         52.2170   100.0030    76.0730 hn         1 NB9       0.461000
     57 H28         51.5000   116.2930    74.2800 ho         1 NB9       0.472000
     58 C08         54.7850   115.0810    71.3440 c3         1 NB9       0.008600
     59 C12         52.8920   109.8320    74.3990 c          1 NB9       0.596100
     60 C24         51.8030   107.0900    73.7020 c          1 NB9       0.606700
     61 O13         53.3060   109.5460    75.5160 o          1 NB9      -0.646100
@<TRIPOS>BOND
     1     1     2 1   
     2     1     5 1   
     3     1    31 1   
     4     1    32 1   
     5     2    22 1   
     6     2    33 1   
     7     2    34 1   
     8     3     4 1   
     9     3    22 1   
    10     3    35 1   
    11     3    36 1   
    12     4     5 1   
    13     4    37 1   
    14     4    38 1   
    15     5    26 1   
    16     5    39 1   
    17     6    27 1   
    18     6    28 1   
    19     6    58 1   
    20     7     8 1   
    21     7    23 1   
    22     7    42 1   
    23     7    59 1   
    24     8     9 1   
    25     8    43 1   
    26     8    44 1   
    27     9    10 ar  
    28     9    14 ar  
    29    10    11 ar  
    30    10    45 1   
    31    11    12 ar  
    32    11    46 1   
    33    12    13 ar  
    34    12    29 1   
    35    13    14 ar  
    36    13    47 1   
    37    14    48 1   
    38    15    16 ar  
    39    15    20 ar  
    40    15    60 1   
    41    16    17 ar  
    42    16    49 1   
    43    17    18 ar  
    44    17    50 1   
    45    18    19 ar  
    46    18    21 1   
    47    19    20 ar  
    48    19    51 1   
    49    20    52 1   
    50    21    24 2   
    51    21    25 1   
    52    22    59 1   
    53    23    53 1   
    54    23    60 1   
    55    24    54 1   
    56    25    55 1   
    57    25    56 1   
    58    26    58 1   
    59    29    57 1   
    60    30    60 2   
    61    40    58 1   
    62    41    58 1   
    63    59    61 2   
@<TRIPOS>SUBSTRUCTURE
     1 NB9         1 TEMP              0 ****  ****    0 ROOT
