@<TRIPOS>MOLECULE
NB9
   61    63     1     0     0
SMALL
No Charge or Current Charge


@<TRIPOS>ATOM
      1 C01         55.0670   113.3000    74.4990 c6         1 NB9      -0.117400
      2 C02         54.8930   111.8000    74.8160 c6         1 NB9       0.098500
      3 C04         53.5470   111.5240    72.7170 c6         1 NB9       0.098500
      4 C05         53.7680   113.0180    72.3840 c6         1 NB9      -0.117400
      5 C06         55.0860   113.5510    72.9830 c6         1 NB9       0.192300
      6 C09         56.8390   115.0190    70.7290 c          1 NB9       0.697000
      7 C14         51.9260   109.3070    74.1090 c3         1 NB9       0.037700
      8 C15         50.6980   110.0450    74.7080 c3         1 NB9      -0.025100
      9 C16         50.4920   111.4580    74.1760 ca         1 NB9      -0.138300
     10 C17         49.9190   111.6580    72.9050 ca         1 NB9      -0.062500
     11 C18         49.7230   112.9610    72.4160 ca         1 NB9      -0.172000
     12 C19         50.0890   114.0680    73.1950 ca         1 NB9       0.159100
     13 C20         50.6570   113.8760    74.4650 ca         1 NB9      -0.172000
     14 C21         50.8590   112.5740    74.9550 ca         1 NB9      -0.062500
     15 C26         51.1490   105.5060    74.2940 ca         1 NB9      -0.124600
     16 C27         50.3600   104.5080    73.6810 ca         1 NB9      -0.081000
     17 C28         50.4110   103.1730    74.1170 ca         1 NB9      -0.091000
     18 C29         51.2660   102.7880    75.1760 ca         1 NB9      -0.132900
     19 C30         52.0370   103.7920    75.8040 ca         1 NB9      -0.091000
     20 C31         51.9870   105.1270    75.3690 ca         1 NB9      -0.081000
     21 C32         51.3080   101.3720    75.6750 ce         1 NB9       0.662800
     22 N03         53.7110   111.1680    74.1600 n          1 NB9      -0.378800
     23 N23         51.8660   107.8620    74.4290 ns         1 NB9      -0.483900
     24 N33         51.7690   101.0450    76.8110 n2         1 NB9      -0.831100
     25 N34         50.9300   100.3850    74.8330 nv         1 NB9      -1.077200
     26 O07         55.2590   114.9680    72.7410 os         1 NB9      -0.459000
     27 O10         57.7240   114.5410    71.4280 o          1 NB9      -0.732000
     28 O11         56.9760   115.2040    69.5270 o          1 NB9      -0.732000
     29 O22         49.8920   115.3260    72.7120 oh         1 NB9      -0.531100
     30 O25         50.3320   107.2630    72.8700 o          1 NB9      -0.592100
     31 H1          55.9990   113.6650    74.9510 hc         1 NB9       0.055950
     32 H2          54.2470   113.8670    74.9600 hc         1 NB9       0.055950
     33 H3          55.7980   111.2590    74.5010 h1         1 NB9       0.050700
     34 H4          54.8100   111.6850    75.9070 h1         1 NB9       0.050700
     35 H5          52.5460   111.2540    72.3630 h1         1 NB9       0.050700
     36 H6          54.2630   110.9250    72.1360 h1         1 NB9       0.050700
     37 H7          53.7590   113.1360    71.2930 hc         1 NB9       0.055950
     38 H8          52.9260   113.6070    72.7700 hc         1 NB9       0.055950
     39 H9          55.9330   113.0030    72.5440 h1         1 NB9       0.058700
     40 H10         55.4190   116.5150    71.3450 h1         1 NB9       0.020700
     41 H11         54.6620   115.0580    70.7140 h1         1 NB9       0.020700
     42 H12         51.9060   109.3990    73.0170 h1         1 NB9       0.083700
     43 H13         49.7940   109.4620    74.4960 hc         1 NB9       0.051200
     44 H14         50.7890   110.0560    75.8020 hc         1 NB9       0.051200
     45 H15         49.6280   110.8040    72.2960 ha         1 NB9       0.113000
     46 H16         49.2830   113.1110    71.4340 ha         1 NB9       0.122500
     47 H17         50.9470   114.7280    75.0750 ha         1 NB9       0.122500
     48 H18         51.3030   112.4340    75.9380 ha         1 NB9       0.113000
     49 H19         49.6930   104.7660    72.8600 ha         1 NB9       0.128500
     50 H20         49.7690   102.4440    73.6290 ha         1 NB9       0.127000
     51 H21         52.6910   103.5360    76.6360 ha         1 NB9       0.127000
     52 H22         52.6090   105.8550    75.8840 ha         1 NB9       0.128500
     53 H23         52.4690   107.5220    75.1690 hn         1 NB9       0.317500
     54 H24         51.5040   100.0700    76.9920 hn         1 NB9       0.367400
     55 H25         50.8690   100.6590    73.8590 hn         1 NB9       0.461000
     56 H26         51.3450    99.4750    74.9960 hn         1 NB9       0.461000
     57 H28         50.2020   115.9680    73.3850 ho         1 NB9       0.472000
     58 C08         55.4640   115.4190    71.3700 c3         1 NB9       0.008600
     59 C12         53.2760   109.9030    74.6310 c          1 NB9       0.596100
     60 C24         51.0650   106.9360    73.7940 c          1 NB9       0.606700
     61 O13         53.9180   109.3140    75.4980 o          1 NB9      -0.646100
@<TRIPOS>BOND
     1     1     2 1   
     2     1     5 1   
     3     1    31 1   
     4     1    32 1   
     5     2    22 1   
     6     2    33 1   
     7     2    34 1   
     8     3     4 1   
     9     3    22 1   
    10     3    35 1   
    11     3    36 1   
    12     4     5 1   
    13     4    37 1   
    14     4    38 1   
    15     5    26 1   
    16     5    39 1   
    17     6    27 1   
    18     6    28 1   
    19     6    58 1   
    20     7     8 1   
    21     7    23 1   
    22     7    42 1   
    23     7    59 1   
    24     8     9 1   
    25     8    43 1   
    26     8    44 1   
    27     9    10 ar  
    28     9    14 ar  
    29    10    11 ar  
    30    10    45 1   
    31    11    12 ar  
    32    11    46 1   
    33    12    13 ar  
    34    12    29 1   
    35    13    14 ar  
    36    13    47 1   
    37    14    48 1   
    38    15    16 ar  
    39    15    20 ar  
    40    15    60 1   
    41    16    17 ar  
    42    16    49 1   
    43    17    18 ar  
    44    17    50 1   
    45    18    19 ar  
    46    18    21 1   
    47    19    20 ar  
    48    19    51 1   
    49    20    52 1   
    50    21    24 2   
    51    21    25 1   
    52    22    59 1   
    53    23    53 1   
    54    23    60 1   
    55    24    54 1   
    56    25    55 1   
    57    25    56 1   
    58    26    58 1   
    59    29    57 1   
    60    30    60 2   
    61    40    58 1   
    62    41    58 1   
    63    59    61 2   
@<TRIPOS>SUBSTRUCTURE
     1 NB9         1 TEMP              0 ****  ****    0 ROOT
