@<TRIPOS>MOLECULE
NBA
   40    39     1     0     0
SMALL
No Charge or Current Charge


@<TRIPOS>ATOM
      1 O4           1.0880    -0.2220    -7.3980 oh         1 NBA      -0.684500
      2 C4           0.1350     0.1170    -6.4180 c3         1 NBA       0.384300
      3 C5           0.7020    -0.1560    -5.0110 c3         1 NBA      -0.111400
      4 C6          -0.2540     0.2670    -3.8800 c3         1 NBA       0.163800
      5 N7           0.3660     0.0040    -2.5680 n7         1 NBA      -0.860400
      6 C8          -0.4680     0.3470    -1.4020 c3         1 NBA       0.160800
      7 C9           0.2760     0.0120    -0.0950 c3         1 NBA      -0.084400
      8 C10         -0.5590     0.3470     1.1560 c3         1 NBA       0.160800
      9 N11          0.1890     0.0040     2.3790 n7         1 NBA      -0.857400
     10 C12         -0.5230     0.2680     3.6420 c3         1 NBA       0.159800
     11 C13          0.3460    -0.1450     4.8450 c3         1 NBA      -0.083400
     12 C14         -0.3590     0.1060     6.1920 c3         1 NBA       0.156800
     13 N15          0.5060    -0.3090     7.3120 n7         1 NBA      -0.856400
     14 C16         -0.0790    -0.1290     8.6550 c3         1 NBA       0.144100
     15 O4L         -0.9760    -0.7100    -6.6820 oh         1 NBA      -0.684500
     16 HO4          0.8020     0.2430    -8.2130 ho         1 NBA       0.453500
     17 HC4         -0.1490     1.1730    -6.5240 h2         1 NBA       0.055700
     18 HC51         1.6430     0.3970    -4.9040 hc         1 NBA       0.064200
     19 HC52         0.9460    -1.2210    -4.9080 hc         1 NBA       0.064200
     20 HC61        -1.1960    -0.2910    -3.9720 h1         1 NBA       0.033200
     21 HC62        -0.4860     1.3360    -3.9860 h1         1 NBA       0.033200
     22 HN7          1.2360     0.5490    -2.5100 hn         1 NBA       0.405000
     23 HC81        -1.4120    -0.2150    -1.4300 h1         1 NBA       0.029200
     24 HC82        -0.7140     1.4180    -1.4100 h1         1 NBA       0.029200
     25 HC91         1.2190     0.5690    -0.0610 hc         1 NBA       0.052700
     26 HC92         0.5260    -1.0560    -0.0860 hc         1 NBA       0.052700
     27 H101        -1.5030    -0.2150     1.1170 h1         1 NBA       0.027700
     28 H102        -0.8050     1.4180     1.1470 h1         1 NBA       0.027700
     29 HN11         1.0600     0.5490     2.3840 hn         1 NBA       0.403000
     30 H121        -1.4660    -0.2950     3.6730 h1         1 NBA       0.027700
     31 H122        -0.7680     1.3360     3.7270 h1         1 NBA       0.027700
     32 H131         1.2890     0.4140     4.8200 hc         1 NBA       0.052700
     33 H132         0.5940    -1.2100     4.7610 hc         1 NBA       0.052700
     34 H141        -1.3030    -0.4560     6.2110 h1         1 NBA       0.027200
     35 H142        -0.6040     1.1740     6.2750 h1         1 NBA       0.027200
     36 HN51         1.3740     0.2400     7.2660 hn         1 NBA       0.404000
     37 H161         0.6200    -0.4690     9.4300 h1         1 NBA       0.029367
     38 H162        -0.3100     0.9290     8.8440 h1         1 NBA       0.029367
     39 H163        -1.0080    -0.7060     8.7580 h1         1 NBA       0.029367
     40 HOL4        -0.7300    -1.5920    -6.3340 ho         1 NBA       0.453500
@<TRIPOS>BOND
     1     1     2 1   
     2     1    16 1   
     3     2     3 1   
     4     2    15 1   
     5     2    17 1   
     6     3     4 1   
     7     3    18 1   
     8     3    19 1   
     9     4     5 1   
    10     4    20 1   
    11     4    21 1   
    12     5     6 1   
    13     5    22 1   
    14     6     7 1   
    15     6    23 1   
    16     6    24 1   
    17     7     8 1   
    18     7    25 1   
    19     7    26 1   
    20     8     9 1   
    21     8    27 1   
    22     8    28 1   
    23     9    10 1   
    24     9    29 1   
    25    10    11 1   
    26    10    30 1   
    27    10    31 1   
    28    11    12 1   
    29    11    32 1   
    30    11    33 1   
    31    12    13 1   
    32    12    34 1   
    33    12    35 1   
    34    13    14 1   
    35    13    36 1   
    36    14    37 1   
    37    14    38 1   
    38    14    39 1   
    39    15    40 1   
@<TRIPOS>SUBSTRUCTURE
     1 NBA         1 TEMP              0 ****  ****    0 ROOT
