@<TRIPOS>MOLECULE
NBA
   40    39     1     0     0
SMALL
abcg2


@<TRIPOS>ATOM
      1 O4           0.9100    -0.1710    -7.3090 oh         1 NBA      -0.684500
      2 C4           0.0930     0.3260    -6.2890 c3         1 NBA       0.384300
      3 C5           0.6140    -0.2330    -4.9760 c3         1 NBA      -0.111400
      4 C6          -0.1990     0.2290    -3.7750 c3         1 NBA       0.163800
      5 N7           0.4460    -0.1680    -2.5390 n7         1 NBA      -0.860400
      6 C8          -0.3360     0.1610    -1.3620 c3         1 NBA       0.160800
      7 C9           0.4400    -0.1280    -0.0860 c3         1 NBA      -0.084400
      8 C10         -0.3920     0.1230     1.1610 c3         1 NBA       0.160800
      9 N11          0.3750    -0.1150     2.3690 n7         1 NBA      -0.857400
     10 C12         -0.3950     0.1110     3.5770 c3         1 NBA       0.159800
     11 C13          0.4450    -0.1120     4.8250 c3         1 NBA      -0.083400
     12 C14         -0.3550     0.1070     6.0990 c3         1 NBA       0.156800
     13 N15          0.4530    -0.1130     7.2820 n7         1 NBA      -0.856400
     14 C16         -0.2840     0.1170     8.5080 c3         1 NBA       0.144100
     15 O4L         -1.2600     0.0310    -6.5040 oh         1 NBA      -0.684500
     16 HO4          0.6990     0.2910    -8.1270 ho         1 NBA       0.453500
     17 HC4          0.1320     1.4220    -6.2610 h2         1 NBA       0.055700
     18 HC51         1.6530     0.0870    -4.8550 hc         1 NBA       0.064200
     19 HC52         0.6230    -1.3280    -5.0160 hc         1 NBA       0.064200
     20 HC61        -1.1920    -0.2260    -3.8040 h1         1 NBA       0.033200
     21 HC62        -0.3600     1.3190    -3.8330 h1         1 NBA       0.033200
     22 HN7          1.3400     0.3050    -2.4770 hn         1 NBA       0.405000
     23 HC81        -1.2480    -0.4450    -1.3770 h1         1 NBA       0.029200
     24 HC82        -0.6650     1.2120    -1.3540 h1         1 NBA       0.029200
     25 HC91         1.3340     0.5050    -0.0600 hc         1 NBA       0.052700
     26 HC92         0.7850    -1.1650    -0.0930 hc         1 NBA       0.052700
     27 H101        -1.2500    -0.5570     1.1640 h1         1 NBA       0.027700
     28 H102        -0.8120     1.1420     1.1250 h1         1 NBA       0.027700
     29 HN11         1.1730     0.5110     2.3730 hn         1 NBA       0.403000
     30 H121        -1.2370    -0.5890     3.5800 h1         1 NBA       0.027700
     31 H122        -0.8380     1.1200     3.6100 h1         1 NBA       0.027700
     32 H131         1.3010     0.5730     4.8130 hc         1 NBA       0.052700
     33 H132         0.8520    -1.1270     4.8170 hc         1 NBA       0.052700
     34 H141        -1.1940    -0.5970     6.1230 h1         1 NBA       0.027200
     35 H142        -0.8060     1.1140     6.0800 h1         1 NBA       0.027200
     36 HN51         1.2460     0.5160     7.2560 hn         1 NBA       0.404000
     37 H161         0.3800     0.0100     9.3660 h1         1 NBA       0.029367
     38 H162        -0.7560     1.1080     8.5690 h1         1 NBA       0.029367
     39 H163        -1.0770    -0.6270     8.6110 h1         1 NBA       0.029367
     40 HOL4        -1.3910    -0.9200    -6.4070 ho         1 NBA       0.453500
@<TRIPOS>BOND
     1     1     2 1   
     2     1    16 1   
     3     2     3 1   
     4     2    15 1   
     5     2    17 1   
     6     3     4 1   
     7     3    18 1   
     8     3    19 1   
     9     4     5 1   
    10     4    20 1   
    11     4    21 1   
    12     5     6 1   
    13     5    22 1   
    14     6     7 1   
    15     6    23 1   
    16     6    24 1   
    17     7     8 1   
    18     7    25 1   
    19     7    26 1   
    20     8     9 1   
    21     8    27 1   
    22     8    28 1   
    23     9    10 1   
    24     9    29 1   
    25    10    11 1   
    26    10    30 1   
    27    10    31 1   
    28    11    12 1   
    29    11    32 1   
    30    11    33 1   
    31    12    13 1   
    32    12    34 1   
    33    12    35 1   
    34    13    14 1   
    35    13    36 1   
    36    14    37 1   
    37    14    38 1   
    38    14    39 1   
    39    15    40 1   
@<TRIPOS>SUBSTRUCTURE
     1 NBA         1 TEMP              0 ****  ****    0 ROOT
