@<TRIPOS>MOLECULE
NBB
   29    29     1     0     0
SMALL
abcg2


@<TRIPOS>ATOM
      1 O1S         -2.4840    -0.7340    -1.0420 o          1 NBB      -0.533000
      2 S           -1.4800     0.1710    -0.5060 sy         1 NBB       1.147600
      3 O2S         -1.7890     1.5790    -0.3210 o          1 NBB      -0.533000
      4 N10         -1.0650    -0.4270     0.9670 n7         1 NBB      -0.864300
      5 C11         -0.0570     0.2690     1.7660 c3         1 NBB       0.199800
      6 C12          0.1230    -0.4480     3.0940 c3         1 NBB      -0.083400
      7 C13          1.1290     0.2600     3.9930 c3         1 NBB      -0.076400
      8 C14          1.3320    -0.4660     5.3160 c3         1 NBB      -0.089100
      9 C4          -0.0370     0.0620    -1.5330 ca         1 NBB      -0.308500
     10 C5           0.8120     1.1550    -1.6430 ca         1 NBB      -0.017500
     11 C6           1.9600     1.0400    -2.4160 ca         1 NBB      -0.130000
     12 C1           2.2480    -0.1530    -3.0650 ca         1 NBB      -0.057000
     13 C2           1.3880    -1.2380    -2.9480 ca         1 NBB      -0.130000
     14 C3           0.2390    -1.1380    -2.1790 ca         1 NBB      -0.017500
     15 H10         -0.9350    -1.4340     0.9350 hn         1 NBB       0.477000
     16 H111        -0.4010     1.2890     1.9410 h1         1 NBB       0.052700
     17 H112         0.9060     0.3300     1.2440 h1         1 NBB       0.052700
     18 H121         0.4590    -1.4740     2.9110 hc         1 NBB       0.049700
     19 H122        -0.8430    -0.5180     3.6010 hc         1 NBB       0.049700
     20 H131         0.7880     1.2810     4.1830 hc         1 NBB       0.040200
     21 H132         2.0860     0.3490     3.4710 hc         1 NBB       0.040200
     22 H141         2.0500     0.0560     5.9490 hc         1 NBB       0.034700
     23 H142         0.3960    -0.5420     5.8710 hc         1 NBB       0.034700
     24 H143         1.7040    -1.4790     5.1580 hc         1 NBB       0.034700
     25 H5           0.5860     2.0890    -1.1470 ha         1 NBB       0.135000
     26 H6           2.6260     1.8870    -2.5120 ha         1 NBB       0.119500
     27 H1           3.1420    -0.2360    -3.6670 ha         1 NBB       0.117000
     28 H2           1.6090    -2.1660    -3.4590 ha         1 NBB       0.119500
     29 H3          -0.4300    -1.9830    -2.0960 ha         1 NBB       0.135000
@<TRIPOS>BOND
     1     1     2 2   
     2     2     3 2   
     3     2     4 1   
     4     2     9 1   
     5     4     5 1   
     6     4    15 1   
     7     5     6 1   
     8     5    16 1   
     9     5    17 1   
    10     6     7 1   
    11     6    18 1   
    12     6    19 1   
    13     7     8 1   
    14     7    20 1   
    15     7    21 1   
    16     8    22 1   
    17     8    23 1   
    18     8    24 1   
    19     9    10 ar  
    20     9    14 ar  
    21    10    11 ar  
    22    10    25 1   
    23    11    12 ar  
    24    11    26 1   
    25    12    13 ar  
    26    12    27 1   
    27    13    14 ar  
    28    13    28 1   
    29    14    29 1   
@<TRIPOS>SUBSTRUCTURE
     1 NBB         1 TEMP              0 ****  ****    0 ROOT
