@<TRIPOS>MOLECULE
NBB
   29    29     1     0     0
SMALL
No Charge or Current Charge


@<TRIPOS>ATOM
      1 O1S         -2.1600     0.1550    -0.5530 o          1 NBB      -0.533000
      2 S           -0.8170     0.7310    -0.4380 sy         1 NBB       1.147600
      3 O2S         -0.5720     2.1650    -0.2650 o          1 NBB      -0.533000
      4 N10         -0.0990    -0.0370     0.8560 n7         1 NBB      -0.864300
      5 C11         -0.2440     0.5780     2.1830 c3         1 NBB       0.199800
      6 C12          0.4750    -0.2860     3.2380 c3         1 NBB      -0.083400
      7 C13          0.3560     0.2850     4.6680 c3         1 NBB      -0.076400
      8 C14          1.0730    -0.5770     5.7250 c3         1 NBB      -0.089100
      9 C4           0.2220     0.0940    -1.7600 ca         1 NBB      -0.308500
     10 C5           1.2990     0.8610    -2.2540 ca         1 NBB      -0.017500
     11 C6           2.1090     0.3520    -3.2850 ca         1 NBB      -0.130000
     12 C1           1.8500    -0.9200    -3.8250 ca         1 NBB      -0.057000
     13 C2           0.7800    -1.6850    -3.3330 ca         1 NBB      -0.130000
     14 C3          -0.0340    -1.1830    -2.3030 ca         1 NBB      -0.017500
     15 H10          0.8790    -0.0440     0.5740 hn         1 NBB       0.477000
     16 H111        -1.3060     0.6590     2.4540 h1         1 NBB       0.052700
     17 H112         0.1840     1.5900     2.1990 h1         1 NBB       0.052700
     18 H121         1.5360    -0.3730     2.9720 hc         1 NBB       0.049700
     19 H122         0.0540    -1.2990     3.2180 hc         1 NBB       0.049700
     20 H131        -0.7040     0.3720     4.9380 hc         1 NBB       0.040200
     21 H132         0.7750     1.2990     4.6910 hc         1 NBB       0.040200
     22 H141         0.9610    -0.1330     6.7210 hc         1 NBB       0.034700
     23 H142         0.6510    -1.5890     5.7510 hc         1 NBB       0.034700
     24 H143         2.1440    -0.6530     5.5020 hc         1 NBB       0.034700
     25 H5           1.5140     1.8480    -1.8470 ha         1 NBB       0.135000
     26 H6           2.9380     0.9440    -3.6650 ha         1 NBB       0.119500
     27 H1           2.4790    -1.3110    -4.6220 ha         1 NBB       0.117000
     28 H2           0.5800    -2.6700    -3.7490 ha         1 NBB       0.119500
     29 H3          -0.8590    -1.7890    -1.9280 ha         1 NBB       0.135000
@<TRIPOS>BOND
     1     1     2 2   
     2     2     3 2   
     3     2     4 1   
     4     2     9 1   
     5     4     5 1   
     6     4    15 1   
     7     5     6 1   
     8     5    16 1   
     9     5    17 1   
    10     6     7 1   
    11     6    18 1   
    12     6    19 1   
    13     7     8 1   
    14     7    20 1   
    15     7    21 1   
    16     8    22 1   
    17     8    23 1   
    18     8    24 1   
    19     9    10 ar  
    20     9    14 ar  
    21    10    11 ar  
    22    10    25 1   
    23    11    12 ar  
    24    11    26 1   
    25    12    13 ar  
    26    12    27 1   
    27    13    14 ar  
    28    13    28 1   
    29    14    29 1   
@<TRIPOS>SUBSTRUCTURE
     1 NBB         1 TEMP              0 ****  ****    0 ROOT
