@<TRIPOS>MOLECULE
NBD
   83    88     1     0     0
SMALL
abcg2


@<TRIPOS>ATOM
      1 PA           0.0300    -2.0950    -3.0520 p5         1 NBD       1.463800
      2 O11         -1.3630    -1.5560    -3.1900 o          1 NBD      -0.843500
      3 O12          0.8120    -2.4740    -4.2690 o          1 NBD      -0.843500
      4 O5B          0.0300    -3.3540    -1.9910 os         1 NBD      -0.574400
      5 C5B         -0.9730    -4.3340    -2.1120 c3         1 NBD       0.213600
      6 C4B         -1.4210    -4.7850    -0.7330 c5         1 NBD       0.157300
      7 O4B         -1.7910    -3.6660     0.0780 os         1 NBD      -0.417000
      8 C3B         -2.6610    -5.6630    -0.8210 c5         1 NBD       0.097300
      9 O3B         -2.6980    -6.5210     0.2890 oh         1 NBD      -0.716000
     10 C2B         -3.7650    -4.6030    -0.7340 c5         1 NBD       0.070300
     11 O2B         -5.0070    -5.0730    -0.3040 oh         1 NBD      -0.703000
     12 C1B         -3.1690    -3.6590     0.3080 c5         1 NBD       0.325300
     13 N9A         -3.6580    -2.3050     0.2370 na         1 NBD      -0.293300
     14 C8A         -3.3520    -1.3510    -0.6990 cc         1 NBD       0.462700
     15 N7A         -3.9600    -0.2190    -0.4850 nd         1 NBD      -0.556100
     16 C5A         -4.7040    -0.4320     0.6450 ca         1 NBD      -0.072600
     17 C6A         -5.5620     0.3920     1.3990 ca         1 NBD       0.428900
     18 N6A         -5.8180     1.6580     1.0490 nu         1 NBD      -0.923100
     19 N1A         -6.1330    -0.1260     2.4900 nb         1 NBD      -0.321000
     20 C2A         -5.8740    -1.3910     2.8170 ca         1 NBD       0.144900
     21 N3A         -5.0930    -2.2560     2.1970 nb         1 NBD      -0.211000
     22 C4A         -4.5290    -1.7240     1.1130 ca         1 NBD       0.103500
     23 O3           0.9320    -1.1350    -2.0750 os         1 NBD      -0.690800
     24 PN           1.0600     0.4870    -2.2590 p5         1 NBD       1.426800
     25 O13          0.4030     1.1630    -1.0980 o          1 NBD      -0.825500
     26 O14          0.7430     0.8980    -3.6610 o          1 NBD      -0.825500
     27 O5D          2.7030     0.5040    -2.0510 os         1 NBD      -0.569400
     28 C5D          3.3880     1.7110    -2.2750 c3         1 NBD       0.204600
     29 C4D          3.2810     2.6750    -1.1000 c5         1 NBD       0.115300
     30 O4D          3.5760     2.0150     0.1460 os         1 NBD      -0.379000
     31 C3D          4.2890     3.8080    -1.1850 c5         1 NBD       0.123300
     32 O3D          3.8110     4.8890    -0.4340 oh         1 NBD      -0.689000
     33 C2D          5.5100     3.1690    -0.5120 c5         1 NBD       0.068300
     34 O2D          6.4140     4.0630     0.0580 oh         1 NBD      -0.718000
     35 C1D          4.8350     2.3310     0.5830 c5         1 NBD       0.276300
     36 N1N          5.6160     1.0800     0.8430 na         1 NBD       0.032300
     37 C2N          6.7340     1.2010     1.5670 ca         1 NBD      -0.030000
     38 C3N          7.5320     0.1070     1.8260 ca         1 NBD      -0.196600
     39 C7N          8.7820     0.3540     2.6240 c          1 NBD       0.626700
     40 O7N          9.2400     1.4820     2.6900 o          1 NBD      -0.585100
     41 N7N          9.3200    -0.7150     3.2120 nt         1 NBD      -0.590000
     42 C4N          7.1530    -1.1250     1.3050 ca         1 NBD      -0.002000
     43 C5N          5.9930    -1.2210     0.5550 ca         1 NBD      -0.132000
     44 C6N          5.2280    -0.0990     0.3380 ca         1 NBD       0.051700
     45 CB1         -6.6040     2.5700     1.8550 c3         1 NBD       0.281100
     46 CB2         -6.9890     3.7750     1.0420 ca         1 NBD      -0.104300
     47 CB3         -7.8760     3.6470    -0.0260 ca         1 NBD      -0.090500
     48 CB7         -6.4600     5.0270     1.3310 ca         1 NBD      -0.090500
     49 CB4         -8.2270     4.7530    -0.7860 ca         1 NBD      -0.116500
     50 CB6         -6.8110     6.1380     0.5720 ca         1 NBD      -0.116500
     51 CB5         -7.6940     6.0020    -0.4880 ca         1 NBD      -0.109000
     52 H51A        -1.8320    -3.9580    -2.6780 h1         1 NBD       0.017700
     53 H52A        -0.5950    -5.2120    -2.6500 h1         1 NBD       0.017700
     54 H4B         -0.6010    -5.3090    -0.2320 h1         1 NBD       0.083700
     55 H3B         -2.6990    -6.2210    -1.7660 h1         1 NBD       0.048700
     56 HO3A        -3.6050    -6.8330     0.3930 ho         1 NBD       0.507000
     57 H2B         -3.8400    -4.0840    -1.6980 h1         1 NBD       0.077700
     58 HO2A        -5.4810    -5.4310    -1.0610 ho         1 NBD       0.501000
     59 H1B         -3.4170    -4.0150     1.3150 h2         1 NBD       0.094700
     60 H8A         -2.6560    -1.5340    -1.5120 h5         1 NBD       0.155800
     61 H6A         -5.2740     2.0470     0.2950 hn         1 NBD       0.524000
     62 H2A         -6.3700    -1.7510     3.7130 h5         1 NBD       0.024100
     63 H51N         3.0230     2.2280    -3.1690 h1         1 NBD       0.028200
     64 H52N         4.4330     1.4500    -2.4730 h1         1 NBD       0.028200
     65 H4D          2.2600     3.0490    -1.0210 h1         1 NBD       0.166700
     66 H3D          4.5070     4.0870    -2.2240 h1         1 NBD       0.073700
     67 HO3N         4.5480     5.4840    -0.2550 ho         1 NBD       0.509000
     68 H2D          6.0050     2.5020    -1.2280 h1         1 NBD       0.062700
     69 HO2N         7.0960     4.2760    -0.5870 ho         1 NBD       0.527000
     70 H1D          4.8140     2.8560     1.5430 h2         1 NBD       0.114700
     71 H2N          6.9730     2.1870     1.9390 h4         1 NBD       0.198000
     72 H71N        10.1560    -0.6090     3.7640 hn         1 NBD       0.326000
     73 H72N         8.8640    -1.6100     3.2530 hn         1 NBD       0.326000
     74 H4N          7.7530    -2.0120     1.4600 ha         1 NBD       0.142000
     75 H5N          5.6740    -2.1630     0.1360 ha         1 NBD       0.186000
     76 H6N          4.3090    -0.1260    -0.2290 h4         1 NBD       0.261000
     77 HB11        -7.4970     2.0490     2.2030 h1         1 NBD       0.052200
     78 HB12        -6.0510     2.8810     2.7470 h1         1 NBD       0.052200
     79 HB3         -8.2980     2.6760    -0.2610 ha         1 NBD       0.117500
     80 HB7         -5.7660     5.1370     2.1560 ha         1 NBD       0.117500
     81 HB4         -8.9190     4.6420    -1.6110 ha         1 NBD       0.107500
     82 HB6         -6.3910     7.1070     0.8090 ha         1 NBD       0.107500
     83 HB5         -7.9680     6.8650    -1.0820 ha         1 NBD       0.104000
@<TRIPOS>BOND
     1     1     2 1   
     2     1     3 1   
     3     1     4 1   
     4     1    23 1   
     5     4     5 1   
     6     5     6 1   
     7     5    52 1   
     8     5    53 1   
     9     6     7 1   
    10     6     8 1   
    11     6    54 1   
    12     7    12 1   
    13     8     9 1   
    14     8    10 1   
    15     8    55 1   
    16     9    56 1   
    17    10    11 1   
    18    10    12 1   
    19    10    57 1   
    20    11    58 1   
    21    12    13 1   
    22    12    59 1   
    23    13    14 1   
    24    13    22 1   
    25    14    15 2   
    26    14    60 1   
    27    15    16 1   
    28    16    17 ar  
    29    16    22 ar  
    30    17    18 1   
    31    17    19 ar  
    32    18    45 1   
    33    18    61 1   
    34    19    20 ar  
    35    20    21 ar  
    36    20    62 1   
    37    21    22 ar  
    38    23    24 1   
    39    24    25 1   
    40    24    26 1   
    41    24    27 1   
    42    27    28 1   
    43    28    29 1   
    44    28    63 1   
    45    28    64 1   
    46    29    30 1   
    47    29    31 1   
    48    29    65 1   
    49    30    35 1   
    50    31    32 1   
    51    31    33 1   
    52    31    66 1   
    53    32    67 1   
    54    33    34 1   
    55    33    35 1   
    56    33    68 1   
    57    34    69 1   
    58    35    36 1   
    59    35    70 1   
    60    36    37 1   
    61    36    44 2   
    62    37    38 ar  
    63    37    71 1   
    64    38    39 1   
    65    38    42 ar  
    66    39    40 2   
    67    39    41 1   
    68    41    72 1   
    69    41    73 1   
    70    42    43 ar  
    71    42    74 1   
    72    43    44 ar  
    73    43    75 1   
    74    44    76 1   
    75    45    46 1   
    76    45    77 1   
    77    45    78 1   
    78    46    47 ar  
    79    46    48 ar  
    80    47    49 ar  
    81    47    79 1   
    82    48    50 ar  
    83    48    80 1   
    84    49    51 ar  
    85    49    81 1   
    86    50    51 ar  
    87    50    82 1   
    88    51    83 1   
@<TRIPOS>SUBSTRUCTURE
     1 NBD         1 TEMP              0 ****  ****    0 ROOT
