@<TRIPOS>MOLECULE
NBD
   83    88     1     0     0
SMALL
No Charge or Current Charge


@<TRIPOS>ATOM
      1 PA           0.0540     0.1790    -3.7790 p5         1 NBD       1.463800
      2 O11         -1.1890     0.8660    -3.3200 o          1 NBD      -0.843500
      3 O12          0.6340     0.8070    -5.0040 o          1 NBD      -0.843500
      4 O5B         -0.2590    -1.3690    -4.1190 os         1 NBD      -0.574400
      5 C5B         -1.1610    -2.1810    -3.3450 c3         1 NBD       0.213600
      6 C4B         -0.5700    -2.5350    -1.9410 c5         1 NBD       0.157300
      7 O4B         -1.1320    -1.6570    -0.9270 os         1 NBD      -0.417000
      8 C3B         -0.9590    -3.9730    -1.4540 c5         1 NBD       0.097300
      9 O3B         -0.1490    -4.4450    -0.3670 oh         1 NBD      -0.716000
     10 C2B         -2.4150    -3.7040    -0.9800 c5         1 NBD       0.070300
     11 O2B         -2.9050    -4.7660    -0.1350 oh         1 NBD      -0.703000
     12 C1B         -2.2090    -2.3350    -0.2370 c5         1 NBD       0.325300
     13 N9A         -3.3560    -1.4340    -0.1110 na         1 NBD      -0.293300
     14 C8A         -4.3870    -1.2680    -1.0450 cc         1 NBD       0.462700
     15 N7A         -5.3230    -0.4070    -0.5940 nd         1 NBD      -0.556100
     16 C5A         -4.8390    -0.0330     0.6630 ca         1 NBD      -0.072600
     17 C6A         -5.4000     0.8510     1.6090 ca         1 NBD       0.428900
     18 N6A         -6.6030     1.5010     1.3630 nu         1 NBD      -0.923100
     19 N1A         -4.7800     1.0850     2.7840 nb         1 NBD      -0.321000
     20 C2A         -3.6120     0.4280     2.9850 ca         1 NBD       0.144900
     21 N3A         -3.0080    -0.4340     2.1330 nb         1 NBD      -0.211000
     22 C4A         -3.6500    -0.6470     0.9670 ca         1 NBD       0.103500
     23 O3           1.1420    -0.0720    -2.6690 os         1 NBD      -0.690800
     24 PN           1.5090     1.2320    -1.8620 p5         1 NBD       1.426800
     25 O13          0.5550     1.5160    -0.7510 o          1 NBD      -0.825500
     26 O14          1.7930     2.4360    -2.6950 o          1 NBD      -0.825500
     27 O5D          2.8770     0.6530    -1.2320 os         1 NBD      -0.569400
     28 C5D          4.0870     0.5710    -2.0030 c3         1 NBD       0.204600
     29 C4D          4.8150     1.9550    -2.0400 c5         1 NBD       0.115300
     30 O4D          4.9130     2.5400    -0.7160 os         1 NBD      -0.379000
     31 C3D          6.3020     1.8890    -2.4900 c5         1 NBD       0.123300
     32 O3D          6.8290     3.1770    -2.8270 oh         1 NBD      -0.689000
     33 C2D          6.9790     1.3720    -1.1820 c5         1 NBD       0.068300
     34 O2D          8.3610     1.7850    -1.1200 oh         1 NBD      -0.718000
     35 C1D          6.0810     1.9990    -0.0440 c5         1 NBD       0.276300
     36 N1N          5.7090     1.0850     1.0580 na         1 NBD       0.032300
     37 C2N          6.6820     0.3190     1.7210 ca         1 NBD      -0.030000
     38 C3N          6.3750    -0.6230     2.7320 ca         1 NBD      -0.196600
     39 C7N          7.4940    -1.4210     3.3560 c          1 NBD       0.626700
     40 O7N          8.6580    -1.2820     3.0180 o          1 NBD      -0.585100
     41 N7N          7.1920    -2.3160     4.3200 nt         1 NBD      -0.590000
     42 C4N          5.0290    -0.7760     3.1250 ca         1 NBD      -0.002000
     43 C5N          4.0430     0.0170     2.5230 ca         1 NBD      -0.132000
     44 C6N          4.3900     0.9420     1.5220 ca         1 NBD       0.051700
     45 CB1         -7.3280     2.4210     2.2450 c3         1 NBD       0.281100
     46 CB2         -8.6050     2.8920     1.5640 ca         1 NBD      -0.104300
     47 CB3         -9.8010     2.1580     1.7080 ca         1 NBD      -0.090500
     48 CB7         -8.6040     4.0640     0.7800 ca         1 NBD      -0.090500
     49 CB4        -10.9800     2.5930     1.0780 ca         1 NBD      -0.116500
     50 CB6         -9.7840     4.4980     0.1510 ca         1 NBD      -0.116500
     51 CB5        -10.9720     3.7630     0.3000 ca         1 NBD      -0.109000
     52 H51A        -2.1320    -1.6820    -3.2270 h1         1 NBD       0.017700
     53 H52A        -1.3460    -3.1140    -3.8920 h1         1 NBD       0.017700
     54 H4B          0.5210    -2.4220    -1.9700 h1         1 NBD       0.083700
     55 H3B         -0.9350    -4.6960    -2.2810 h1         1 NBD       0.048700
     56 HO3A        -0.7820    -4.9280     0.2190 ho         1 NBD       0.507000
     57 H2B         -3.0750    -3.5770    -1.8500 h1         1 NBD       0.077700
     58 HO2A        -3.3270    -5.4450    -0.7150 ho         1 NBD       0.501000
     59 H1B         -1.8810    -2.5430     0.7890 h2         1 NBD       0.094700
     60 H8A         -4.4020    -1.7780    -2.0020 h5         1 NBD       0.155800
     61 H6A         -7.0230     1.2810     0.4590 hn         1 NBD       0.524000
     62 H2A         -3.1060     0.6120     3.9310 h5         1 NBD       0.024100
     63 H51N         3.8730     0.2540    -3.0320 h1         1 NBD       0.028200
     64 H52N         4.7460    -0.1870    -1.5630 h1         1 NBD       0.028200
     65 H4D          4.2480     2.6300    -2.6930 h1         1 NBD       0.166700
     66 H3D          6.4410     1.1860    -3.3240 h1         1 NBD       0.073700
     67 HO3N         7.6800     3.2120    -2.3220 ho         1 NBD       0.509000
     68 H2D          6.9130     0.2750    -1.1390 h1         1 NBD       0.062700
     69 HO2N         8.9160     1.0540    -1.4930 ho         1 NBD       0.527000
     70 H1D          6.6190     2.8240     0.4400 h2         1 NBD       0.114700
     71 H2N          7.7170     0.4740     1.4090 h4         1 NBD       0.198000
     72 H71N         7.9370    -2.8510     4.7390 hn         1 NBD       0.326000
     73 H72N         6.2390    -2.4490     4.6170 hn         1 NBD       0.326000
     74 H4N          4.7340    -1.4830     3.8970 ha         1 NBD       0.142000
     75 H5N          3.0040    -0.0780     2.8350 ha         1 NBD       0.186000
     76 H6N          3.6190     1.5690     1.0690 h4         1 NBD       0.261000
     77 HB11        -7.5800     1.9200     3.1900 h1         1 NBD       0.052200
     78 HB12        -6.6990     3.2890     2.4870 h1         1 NBD       0.052200
     79 HB3         -9.8140     1.2500     2.3070 ha         1 NBD       0.117500
     80 HB7         -7.6870     4.6370     0.6580 ha         1 NBD       0.117500
     81 HB4        -11.8990     2.0220     1.1930 ha         1 NBD       0.107500
     82 HB6         -9.7770     5.4030    -0.4520 ha         1 NBD       0.107500
     83 HB5        -11.8850     4.0990    -0.1870 ha         1 NBD       0.104000
@<TRIPOS>BOND
     1     1     2 1   
     2     1     3 1   
     3     1     4 1   
     4     1    23 1   
     5     4     5 1   
     6     5     6 1   
     7     5    52 1   
     8     5    53 1   
     9     6     7 1   
    10     6     8 1   
    11     6    54 1   
    12     7    12 1   
    13     8     9 1   
    14     8    10 1   
    15     8    55 1   
    16     9    56 1   
    17    10    11 1   
    18    10    12 1   
    19    10    57 1   
    20    11    58 1   
    21    12    13 1   
    22    12    59 1   
    23    13    14 1   
    24    13    22 1   
    25    14    15 2   
    26    14    60 1   
    27    15    16 1   
    28    16    17 ar  
    29    16    22 ar  
    30    17    18 1   
    31    17    19 ar  
    32    18    45 1   
    33    18    61 1   
    34    19    20 ar  
    35    20    21 ar  
    36    20    62 1   
    37    21    22 ar  
    38    23    24 1   
    39    24    25 1   
    40    24    26 1   
    41    24    27 1   
    42    27    28 1   
    43    28    29 1   
    44    28    63 1   
    45    28    64 1   
    46    29    30 1   
    47    29    31 1   
    48    29    65 1   
    49    30    35 1   
    50    31    32 1   
    51    31    33 1   
    52    31    66 1   
    53    32    67 1   
    54    33    34 1   
    55    33    35 1   
    56    33    68 1   
    57    34    69 1   
    58    35    36 1   
    59    35    70 1   
    60    36    37 1   
    61    36    44 2   
    62    37    38 ar  
    63    37    71 1   
    64    38    39 1   
    65    38    42 ar  
    66    39    40 2   
    67    39    41 1   
    68    41    72 1   
    69    41    73 1   
    70    42    43 ar  
    71    42    74 1   
    72    43    44 ar  
    73    43    75 1   
    74    44    76 1   
    75    45    46 1   
    76    45    77 1   
    77    45    78 1   
    78    46    47 ar  
    79    46    48 ar  
    80    47    49 ar  
    81    47    79 1   
    82    48    50 ar  
    83    48    80 1   
    84    49    51 ar  
    85    49    81 1   
    86    50    51 ar  
    87    50    82 1   
    88    51    83 1   
@<TRIPOS>SUBSTRUCTURE
     1 NBD         1 TEMP              0 ****  ****    0 ROOT
