@<TRIPOS>MOLECULE
NBE
   13    13     1     0     0
SMALL
No Charge or Current Charge


@<TRIPOS>ATOM
      1 C1           0.1470     0.2240    -0.5240 ca         1 NBE      -0.062600
      2 N            0.3770     0.3730    -1.9030 ne         1 NBE       0.026900
      3 O            0.4080    -0.6710    -2.5680 o          1 NBE      -0.179300
      4 C2           1.2310     0.0680     0.3610 ca         1 NBE      -0.041000
      5 C3           1.0010    -0.0770     1.7410 ca         1 NBE      -0.131000
      6 C4          -0.3120    -0.0640     2.2420 ca         1 NBE      -0.066000
      7 C5          -1.3960     0.0930     1.3610 ca         1 NBE      -0.131000
      8 C6          -1.1670     0.2380    -0.0190 ca         1 NBE      -0.041000
      9 H2           2.2510     0.0580    -0.0200 ha         1 NBE       0.133000
     10 H3           1.8410    -0.1980     2.4220 ha         1 NBE       0.121500
     11 H4          -0.4900    -0.1760     3.3100 ha         1 NBE       0.117000
     12 H5          -2.4130     0.1040     1.7470 ha         1 NBE       0.121500
     13 H6          -2.0100     0.3600    -0.6970 ha         1 NBE       0.133000
@<TRIPOS>BOND
     1     1     2 1   
     2     1     4 ar  
     3     1     8 ar  
     4     2     3 2   
     5     4     5 ar  
     6     4     9 1   
     7     5     6 ar  
     8     5    10 1   
     9     6     7 ar  
    10     6    11 1   
    11     7     8 ar  
    12     7    12 1   
    13     8    13 1   
@<TRIPOS>SUBSTRUCTURE
     1 NBE         1 TEMP              0 ****  ****    0 ROOT
