@<TRIPOS>MOLECULE
NBE
   13    13     1     0     0
SMALL
abcg2


@<TRIPOS>ATOM
      1 C1           0.2400     0.0300    -0.4820 ca         1 NBE      -0.062600
      2 N            0.6430     0.0370    -1.8410 ne         1 NBE       0.026900
      3 O           -0.2410     0.0330    -2.6560 o          1 NBE      -0.179300
      4 C2           1.2850     0.0340     0.4360 ca         1 NBE      -0.041000
      5 C3           1.0060     0.0280     1.7940 ca         1 NBE      -0.131000
      6 C4          -0.3150     0.0190     2.2210 ca         1 NBE      -0.066000
      7 C5          -1.3600     0.0150     1.2980 ca         1 NBE      -0.131000
      8 C6          -1.0900     0.0210    -0.0570 ca         1 NBE      -0.041000
      9 H2           2.3060     0.0420     0.0760 ha         1 NBE       0.133000
     10 H3           1.8120     0.0310     2.5150 ha         1 NBE       0.121500
     11 H4          -0.5360     0.0150     3.2810 ha         1 NBE       0.117000
     12 H5          -2.3850     0.0080     1.6430 ha         1 NBE       0.121500
     13 H6          -1.8960     0.0180    -0.7770 ha         1 NBE       0.133000
@<TRIPOS>BOND
     1     1     2 1   
     2     1     4 ar  
     3     1     8 ar  
     4     2     3 2   
     5     4     5 ar  
     6     4     9 1   
     7     5     6 ar  
     8     5    10 1   
     9     6     7 ar  
    10     6    11 1   
    11     7     8 ar  
    12     7    12 1   
    13     8    13 1   
@<TRIPOS>SUBSTRUCTURE
     1 NBE         1 TEMP              0 ****  ****    0 ROOT
