@<TRIPOS>MOLECULE
NBG
   30    30     1     0     0
SMALL
abcg2


@<TRIPOS>ATOM
      1 C1           0.2710     0.1600     0.7220 c6         1 NBG       0.301700
      2 C2           1.5370    -0.2250    -0.0480 c6         1 NBG       0.098300
      3 C3           1.4240     0.2770    -1.4810 c6         1 NBG       0.139300
      4 C4           0.1230    -0.1950    -2.1210 c6         1 NBG       0.143300
      5 C5          -1.0570     0.1860    -1.2260 c6         1 NBG       0.179300
      6 C6          -2.3690    -0.3470    -1.7610 c3         1 NBG       0.172600
      7 C8          -0.0330    -0.4890     4.4250 c3         1 NBG      -0.181100
      8 N1           0.3090    -0.3690     2.0430 ns         1 NBG      -0.510900
      9 O3           2.4830    -0.1840    -2.2860 oh         1 NBG      -0.667000
     10 O2           2.6800     0.3610     0.5200 oh         1 NBG      -0.716000
     11 O4          -0.0690     0.4000    -3.3800 oh         1 NBG      -0.715000
     12 O5          -0.8660    -0.3510     0.0650 os         1 NBG      -0.460000
     13 O6          -3.4130     0.1110    -0.9360 oh         1 NBG      -0.706000
     14 O7          -0.6420     1.4010     3.0860 o          1 NBG      -0.576100
     15 H1           0.2120     1.2540     0.7900 h2         1 NBG       0.088700
     16 H2           1.6140    -1.3230    -0.0640 h1         1 NBG       0.048700
     17 H3           1.4050     1.3790    -1.4550 h1         1 NBG       0.059700
     18 H4           0.1540    -1.2930    -2.2010 h1         1 NBG       0.051700
     19 H5          -1.1150     1.2860    -1.1720 h1         1 NBG       0.066700
     20 H61         -2.4880    -0.0040    -2.7930 h1         1 NBG       0.034200
     21 H62         -2.3230    -1.4450    -1.7890 h1         1 NBG       0.034200
     22 H81         -0.7970    -0.1750     5.1330 hc         1 NBG       0.062033
     23 H82         -0.0980    -1.5670     4.2850 hc         1 NBG       0.062033
     24 H83          0.9420    -0.2710     4.8640 hc         1 NBG       0.062033
     25 HN1          0.6000    -1.3300     2.1530 hn         1 NBG       0.308500
     26 HO3          3.2930     0.2540    -2.0080 ho         1 NBG       0.465000
     27 HO2          2.9090    -0.1130     1.3250 ho         1 NBG       0.514000
     28 HO4          0.6550     0.1290    -3.9540 ho         1 NBG       0.524000
     29 HO6         -4.2440    -0.1870    -1.3160 ho         1 NBG       0.503000
     30 C7          -0.1750     0.2770     3.1350 c          1 NBG       0.613100
@<TRIPOS>BOND
     1     1     2 1   
     2     1     8 1   
     3     1    12 1   
     4     1    15 1   
     5     2     3 1   
     6     2    10 1   
     7     2    16 1   
     8     3     4 1   
     9     3     9 1   
    10     3    17 1   
    11     4     5 1   
    12     4    11 1   
    13     4    18 1   
    14     5     6 1   
    15     5    12 1   
    16     5    19 1   
    17     6    13 1   
    18     6    20 1   
    19     6    21 1   
    20     7    22 1   
    21     7    23 1   
    22     7    24 1   
    23     7    30 1   
    24     8    25 1   
    25     8    30 1   
    26     9    26 1   
    27    10    27 1   
    28    11    28 1   
    29    13    29 1   
    30    14    30 2   
@<TRIPOS>SUBSTRUCTURE
     1 NBG         1 TEMP              0 ****  ****    0 ROOT
