@<TRIPOS>MOLECULE
NBG
   30    30     1     0     0
SMALL
No Charge or Current Charge


@<TRIPOS>ATOM
      1 C1           0.3980     0.2890     0.7220 c6         1 NBG       0.301700
      2 C2           1.6340    -0.1770    -0.1190 c6         1 NBG       0.098300
      3 C3           1.4520     0.3010    -1.5870 c6         1 NBG       0.139300
      4 C4           0.1030    -0.2160    -2.1650 c6         1 NBG       0.143300
      5 C5          -1.0610     0.2310    -1.2250 c6         1 NBG       0.179300
      6 C6          -2.4480    -0.3280    -1.6890 c3         1 NBG       0.172600
      7 C8          -0.1770    -0.5510     4.4200 c3         1 NBG      -0.181100
      8 N1           0.4410    -0.2420     2.0800 ns         1 NBG      -0.510900
      9 O3           2.5580    -0.1430    -2.3920 oh         1 NBG      -0.667000
     10 O2           2.8850     0.3300     0.4070 oh         1 NBG      -0.716000
     11 O4          -0.0640     0.2670    -3.5120 oh         1 NBG      -0.715000
     12 O5          -0.8050    -0.2360     0.1290 os         1 NBG      -0.460000
     13 O6          -3.5360     0.0300    -0.8100 oh         1 NBG      -0.706000
     14 O7          -0.8840     1.3200     3.0730 o          1 NBG      -0.576100
     15 H1           0.3560     1.3900     0.7570 h2         1 NBG       0.088700
     16 H2           1.6500    -1.2770    -0.1150 h1         1 NBG       0.048700
     17 H3           1.4210     1.4020    -1.5800 h1         1 NBG       0.059700
     18 H4           0.1310    -1.3160    -2.1680 h1         1 NBG       0.051700
     19 H5          -1.1220     1.3300    -1.2150 h1         1 NBG       0.066700
     20 H61         -2.6490     0.0490    -2.7010 h1         1 NBG       0.034200
     21 H62         -2.3670    -1.4210    -1.7610 h1         1 NBG       0.034200
     22 H81         -0.7350    -0.1010     5.2480 hc         1 NBG       0.062033
     23 H82         -0.5180    -1.5710     4.2090 hc         1 NBG       0.062033
     24 H83          0.8770    -0.7060     4.6790 hc         1 NBG       0.062033
     25 HN1          0.8910    -1.1360     2.2280 hn         1 NBG       0.308500
     26 HO3          3.3410    -0.0620    -1.7980 ho         1 NBG       0.465000
     27 HO2          2.9160     0.1050     1.3680 ho         1 NBG       0.514000
     28 HO4          0.8350     0.1950    -3.9180 ho         1 NBG       0.524000
     29 HO6         -4.3420    -0.4230    -1.1520 ho         1 NBG       0.503000
     30 C7          -0.2590     0.2720     3.1420 c          1 NBG       0.613100
@<TRIPOS>BOND
     1     1     2 1   
     2     1     8 1   
     3     1    12 1   
     4     1    15 1   
     5     2     3 1   
     6     2    10 1   
     7     2    16 1   
     8     3     4 1   
     9     3     9 1   
    10     3    17 1   
    11     4     5 1   
    12     4    11 1   
    13     4    18 1   
    14     5     6 1   
    15     5    12 1   
    16     5    19 1   
    17     6    13 1   
    18     6    20 1   
    19     6    21 1   
    20     7    22 1   
    21     7    23 1   
    22     7    24 1   
    23     7    30 1   
    24     8    25 1   
    25     8    30 1   
    26     9    26 1   
    27    10    27 1   
    28    11    28 1   
    29    13    29 1   
    30    14    30 2   
@<TRIPOS>SUBSTRUCTURE
     1 NBG         1 TEMP              0 ****  ****    0 ROOT
