@<TRIPOS>MOLECULE
NBH
   65    67     1     0     0
SMALL
No Charge or Current Charge


@<TRIPOS>ATOM
      1 C01          9.0970    -1.0710    -0.0450 c3         1 NBH      -0.090100
      2 C02          7.6080    -1.3800     0.2110 c3         1 NBH      -0.077400
      3 C03          6.6780    -0.7900    -0.8760 c3         1 NBH       0.171800
      4 N04          5.2220    -0.8860    -0.5840 n3         1 NBH      -0.738600
      5 C05          4.4010    -0.0800    -1.5300 c3         1 NBH       0.218100
      6 C06          4.7070     1.4160    -1.4870 ca         1 NBH      -0.085300
      7 C07          5.2860     2.0620    -2.5990 ca         1 NBH      -0.100000
      8 C08          5.5640     3.4390    -2.5530 ca         1 NBH      -0.114000
      9 C09          5.2650     4.1800    -1.3970 ca         1 NBH      -0.111000
     10 C10          4.6880     3.5420    -0.2860 ca         1 NBH      -0.114000
     11 C11          4.4100     2.1640    -0.3310 ca         1 NBH      -0.100000
     12 C12          4.7310    -2.2860    -0.4660 c3         1 NBH       0.224100
     13 C13          3.2830    -2.3890     0.0070 ca         1 NBH      -0.111300
     14 C14          2.2970    -2.9570    -0.8220 ca         1 NBH      -0.071000
     15 C15          0.9630    -3.0460    -0.3850 ca         1 NBH      -0.152000
     16 C16          0.5950    -2.5680     0.8920 ca         1 NBH      -0.022000
     17 N17         -0.7310    -2.6220     1.4030 ns         1 NBH      -0.148000
     18 C18         -1.9260    -3.0900     0.8680 c          1 NBH       0.607100
     19 O19         -2.0410    -3.5820    -0.2490 o          1 NBH      -0.567100
     20 C20         -3.1340    -2.9280     1.7970 c3         1 NBH      -0.129100
     21 C21         -3.9630    -1.7180     1.3850 ca         1 NBH      -0.013300
     22 C22         -3.6860    -0.4490     1.9290 ca         1 NBH      -0.112500
     23 C23         -4.4440     0.6710     1.5480 ca         1 NBH      -0.014500
     24 C24         -5.4920     0.5300     0.6150 ca         1 NBH      -0.263500
     25 C25         -5.7690    -0.7390     0.0640 ca         1 NBH      -0.014500
     26 C26         -5.0060    -1.8540     0.4510 ca         1 NBH      -0.112500
     27 S27         -6.4600     1.9680     0.1120 sy         1 NBH       1.041500
     28 O28         -7.7600     1.5080    -0.3950 o          1 NBH      -0.524000
     29 O29         -6.3710     2.9880     1.1650 o          1 NBH      -0.524000
     30 C30         -5.5370     2.6010    -1.3110 c3         1 NBH      -0.292400
     31 C31         -6.1730     3.8630    -1.9420 c3         1 NBH      -0.070100
     32 C32          1.5860    -2.0030     1.7160 ca         1 NBH      -0.152000
     33 C33          2.9190    -1.9130     1.2790 ca         1 NBH      -0.071000
     34 H1           9.4190    -1.4880    -1.0070 hc         1 NBH       0.032700
     35 H2           9.2720     0.0110    -0.0600 hc         1 NBH       0.032700
     36 H3           9.7190    -1.5090     0.7450 hc         1 NBH       0.032700
     37 H4           7.4860    -2.4670     0.2610 hc         1 NBH       0.043700
     38 H5           7.3230    -0.9730     1.1880 hc         1 NBH       0.043700
     39 H6           6.9590     0.2660    -0.9900 h1         1 NBH       0.034700
     40 H7           6.9010    -1.2800    -1.8340 h1         1 NBH       0.034700
     41 H9           4.5420    -0.4500    -2.5550 h1         1 NBH       0.042700
     42 H10          3.3330    -0.1910    -1.3020 h1         1 NBH       0.042700
     43 H11          5.5220     1.4960    -3.4980 ha         1 NBH       0.116000
     44 H12          6.0120     3.9320    -3.4130 ha         1 NBH       0.110500
     45 H13          5.4810     5.2450    -1.3610 ha         1 NBH       0.111000
     46 H14          4.4570     4.1130     0.6110 ha         1 NBH       0.110500
     47 H15          3.9670     1.6730     0.5320 ha         1 NBH       0.116000
     48 H16          4.8360    -2.8010    -1.4310 h1         1 NBH       0.039700
     49 H17          5.3380    -2.8460     0.2580 h1         1 NBH       0.039700
     50 H18          2.5630    -3.3280    -1.8100 ha         1 NBH       0.119500
     51 H19          0.2360    -3.4900    -1.0560 ha         1 NBH       0.127000
     52 H20         -0.8210    -2.2420     2.3360 hn         1 NBH       0.148000
     53 H21         -3.7490    -3.8330     1.7340 hc         1 NBH       0.071700
     54 H22         -2.7940    -2.7940     2.8300 hc         1 NBH       0.071700
     55 H23         -2.8810    -0.3260     2.6500 ha         1 NBH       0.119500
     56 H24         -4.2120     1.6440     1.9790 ha         1 NBH       0.138000
     57 H25         -6.5690    -0.8670    -0.6630 ha         1 NBH       0.138000
     58 H26         -5.2270    -2.8280     0.0180 ha         1 NBH       0.119500
     59 H27         -4.5230     2.8210    -0.9600 h1         1 NBH       0.095700
     60 H28         -5.4910     1.7900    -2.0460 h1         1 NBH       0.095700
     61 H29         -5.5770     4.2040    -2.7970 hc         1 NBH       0.053367
     62 H30         -7.1900     3.6540    -2.2990 hc         1 NBH       0.053367
     63 H31         -6.2240     4.6830    -1.2150 hc         1 NBH       0.053367
     64 H32          1.3250    -1.6270     2.7030 ha         1 NBH       0.127000
     65 H33          3.6720    -1.4690     1.9270 ha         1 NBH       0.119500
@<TRIPOS>BOND
     1     1     2 1   
     2     1    34 1   
     3     1    35 1   
     4     1    36 1   
     5     2     3 1   
     6     2    37 1   
     7     2    38 1   
     8     3     4 1   
     9     3    39 1   
    10     3    40 1   
    11     4     5 1   
    12     4    12 1   
    13     5     6 1   
    14     5    41 1   
    15     5    42 1   
    16     6     7 ar  
    17     6    11 ar  
    18     7     8 ar  
    19     7    43 1   
    20     8     9 ar  
    21     8    44 1   
    22     9    10 ar  
    23     9    45 1   
    24    10    11 ar  
    25    10    46 1   
    26    11    47 1   
    27    12    13 1   
    28    12    48 1   
    29    12    49 1   
    30    13    14 ar  
    31    13    33 ar  
    32    14    15 ar  
    33    14    50 1   
    34    15    16 ar  
    35    15    51 1   
    36    16    17 1   
    37    16    32 ar  
    38    17    18 1   
    39    17    52 1   
    40    18    19 2   
    41    18    20 1   
    42    20    21 1   
    43    20    53 1   
    44    20    54 1   
    45    21    22 ar  
    46    21    26 ar  
    47    22    23 ar  
    48    22    55 1   
    49    23    24 ar  
    50    23    56 1   
    51    24    25 ar  
    52    24    27 1   
    53    25    26 ar  
    54    25    57 1   
    55    26    58 1   
    56    27    28 2   
    57    27    29 2   
    58    27    30 1   
    59    30    31 1   
    60    30    59 1   
    61    30    60 1   
    62    31    61 1   
    63    31    62 1   
    64    31    63 1   
    65    32    33 ar  
    66    32    64 1   
    67    33    65 1   
@<TRIPOS>SUBSTRUCTURE
     1 NBH         1 TEMP              0 ****  ****    0 ROOT
