@<TRIPOS>MOLECULE
NBH
   65    67     1     0     0
SMALL
abcg2


@<TRIPOS>ATOM
      1 C01          8.7250    -3.0880    -0.5690 c3         1 NBH      -0.090100
      2 C02          7.3640    -2.4840    -0.2530 c3         1 NBH      -0.077400
      3 C03          7.0090    -1.3550    -1.2110 c3         1 NBH       0.171800
      4 N04          5.7020    -0.7780    -0.9440 n3         1 NBH      -0.738600
      5 C05          5.6040     0.6080    -1.3510 c3         1 NBH       0.218100
      6 C06          6.4070     1.5340    -0.4730 ca         1 NBH      -0.085300
      7 C07          7.0460     2.6440    -1.0160 ca         1 NBH      -0.100000
      8 C08          7.7430     3.5330    -0.2060 ca         1 NBH      -0.114000
      9 C09          7.8160     3.3160     1.1630 ca         1 NBH      -0.111000
     10 C10          7.1880     2.2050     1.7130 ca         1 NBH      -0.114000
     11 C11          6.4900     1.3220     0.9020 ca         1 NBH      -0.100000
     12 C12          4.6170    -1.5730    -1.4820 c3         1 NBH       0.224100
     13 C13          3.3040    -1.2980    -0.7970 ca         1 NBH      -0.111300
     14 C14          2.1230    -1.1890    -1.5180 ca         1 NBH      -0.071000
     15 C15          0.8930    -0.9980    -0.8990 ca         1 NBH      -0.152000
     16 C16          0.8290    -0.9040     0.4890 ca         1 NBH      -0.022000
     17 N17         -0.3500    -0.7230     1.2220 ns         1 NBH      -0.148000
     18 C18         -1.6240    -0.5770     0.7840 c          1 NBH       0.607100
     19 O19         -1.9540    -0.5580    -0.3860 o          1 NBH      -0.567100
     20 C20         -2.6280    -0.4450     1.9220 c3         1 NBH      -0.129100
     21 C21         -4.0180    -0.2200     1.4130 ca         1 NBH      -0.013300
     22 C22         -4.5020     1.0720     1.2300 ca         1 NBH      -0.112500
     23 C23         -5.7800     1.2880     0.7400 ca         1 NBH      -0.014500
     24 C24         -6.5750     0.1950     0.4280 ca         1 NBH      -0.263500
     25 C25         -6.1160    -1.1030     0.6060 ca         1 NBH      -0.014500
     26 C26         -4.8360    -1.3000     1.0980 ca         1 NBH      -0.112500
     27 S27         -8.1990     0.4630    -0.2290 sy         1 NBH       1.041500
     28 O28         -9.0120    -0.7230     0.0420 o          1 NBH      -0.524000
     29 O29         -8.6810     1.7610     0.2410 o          1 NBH      -0.524000
     30 C30         -7.9290     0.5700    -1.9970 c3         1 NBH      -0.292400
     31 C31         -9.2380     0.8200    -2.7260 c3         1 NBH      -0.070100
     32 C32          2.0150    -0.9990     1.2230 ca         1 NBH      -0.152000
     33 C33          3.2280    -1.1930     0.5900 ca         1 NBH      -0.071000
     34 H1           8.7490    -3.5010    -1.5790 hc         1 NBH       0.032700
     35 H2           9.5160    -2.3390    -0.5010 hc         1 NBH       0.032700
     36 H3           8.9740    -3.8930     0.1220 hc         1 NBH       0.032700
     37 H4           6.6030    -3.2680    -0.2850 hc         1 NBH       0.043700
     38 H5           7.3540    -2.0880     0.7660 hc         1 NBH       0.043700
     39 H6           7.7610    -0.5700    -1.1010 h1         1 NBH       0.034700
     40 H7           7.0910    -1.7060    -2.2540 h1         1 NBH       0.034700
     41 H9           5.8950     0.7560    -2.4050 h1         1 NBH       0.042700
     42 H10          4.5520     0.9040    -1.2890 h1         1 NBH       0.042700
     43 H11          7.0020     2.8170    -2.0850 ha         1 NBH       0.116000
     44 H12          8.2340     4.3910    -0.6470 ha         1 NBH       0.110500
     45 H13          8.3620     4.0040     1.7960 ha         1 NBH       0.111000
     46 H14          7.2440     2.0240     2.7800 ha         1 NBH       0.110500
     47 H15          6.0120     0.4510     1.3320 ha         1 NBH       0.116000
     48 H16          4.4970    -1.4350    -2.5700 h1         1 NBH       0.039700
     49 H17          4.8630    -2.6280    -1.3420 h1         1 NBH       0.039700
     50 H18          2.1530    -1.2530    -2.5990 ha         1 NBH       0.119500
     51 H19          0.0060    -0.9210    -1.5060 ha         1 NBH       0.127000
     52 H20         -0.2260    -0.7150     2.2230 hn         1 NBH       0.148000
     53 H21         -2.5850    -1.3530     2.5290 hc         1 NBH       0.071700
     54 H22         -2.3210     0.3750     2.5760 hc         1 NBH       0.071700
     55 H23         -3.8800     1.9230     1.4780 ha         1 NBH       0.119500
     56 H24         -6.1430     2.2990     0.6090 ha         1 NBH       0.138000
     57 H25         -6.7420    -1.9540     0.3730 ha         1 NBH       0.138000
     58 H26         -4.4750    -2.3100     1.2440 ha         1 NBH       0.119500
     59 H27         -7.2100     1.3750    -2.1580 h1         1 NBH       0.095700
     60 H28         -7.4660    -0.3700    -2.3020 h1         1 NBH       0.095700
     61 H29         -9.0380     0.8810    -3.7940 hc         1 NBH       0.053367
     62 H30         -9.9470     0.0110    -2.5670 hc         1 NBH       0.053367
     63 H31         -9.6970     1.7580    -2.4190 hc         1 NBH       0.053367
     64 H32          1.9850    -0.9240     2.3040 ha         1 NBH       0.127000
     65 H33          4.1320    -1.2600     1.1830 ha         1 NBH       0.119500
@<TRIPOS>BOND
     1     1     2 1   
     2     1    34 1   
     3     1    35 1   
     4     1    36 1   
     5     2     3 1   
     6     2    37 1   
     7     2    38 1   
     8     3     4 1   
     9     3    39 1   
    10     3    40 1   
    11     4     5 1   
    12     4    12 1   
    13     5     6 1   
    14     5    41 1   
    15     5    42 1   
    16     6     7 ar  
    17     6    11 ar  
    18     7     8 ar  
    19     7    43 1   
    20     8     9 ar  
    21     8    44 1   
    22     9    10 ar  
    23     9    45 1   
    24    10    11 ar  
    25    10    46 1   
    26    11    47 1   
    27    12    13 1   
    28    12    48 1   
    29    12    49 1   
    30    13    14 ar  
    31    13    33 ar  
    32    14    15 ar  
    33    14    50 1   
    34    15    16 ar  
    35    15    51 1   
    36    16    17 1   
    37    16    32 ar  
    38    17    18 1   
    39    17    52 1   
    40    18    19 2   
    41    18    20 1   
    42    20    21 1   
    43    20    53 1   
    44    20    54 1   
    45    21    22 ar  
    46    21    26 ar  
    47    22    23 ar  
    48    22    55 1   
    49    23    24 ar  
    50    23    56 1   
    51    24    25 ar  
    52    24    27 1   
    53    25    26 ar  
    54    25    57 1   
    55    26    58 1   
    56    27    28 2   
    57    27    29 2   
    58    27    30 1   
    59    30    31 1   
    60    30    59 1   
    61    30    60 1   
    62    31    61 1   
    63    31    62 1   
    64    31    63 1   
    65    32    33 ar  
    66    32    64 1   
    67    33    65 1   
@<TRIPOS>SUBSTRUCTURE
     1 NBH         1 TEMP              0 ****  ****    0 ROOT
