@<TRIPOS>MOLECULE
NBI
   28    29     1     0     0
SMALL
abcg2


@<TRIPOS>ATOM
      1 C1          -2.4990     0.3700    -0.0120 ca         1 NBI      -0.133200
      2 N1           0.8760    -0.4670     0.2450 ns         1 NBI      -0.129000
      3 O1           0.0690     0.2950    -1.7550 o          1 NBI      -0.553100
      4 C2          -1.4700    -0.5530    -0.1720 ca         1 NBI      -0.099600
      5 N2          -2.2080     1.7930    -0.0920 no         1 NBI       0.694200
      6 O2          -3.0940     2.5330    -0.4440 o          1 NBI      -0.385000
      7 C3          -1.7760    -1.8990    -0.0260 ca         1 NBI      -0.097000
      8 O3          -1.0970     2.1530     0.2180 o          1 NBI      -0.385000
      9 C4          -3.0700    -2.3040     0.2770 ca         1 NBI      -0.075000
     10 C5          -4.0770    -1.3650     0.4290 ca         1 NBI      -0.102000
     11 C6          -3.7950    -0.0160     0.2810 ca         1 NBI      -0.054000
     12 C7          -0.0940    -0.1710    -0.6440 c          1 NBI       0.630700
     13 C8           2.2630    -0.3080     0.1280 ca         1 NBI      -0.022000
     14 C9           3.0250    -0.6530     1.2470 ca         1 NBI      -0.145000
     15 C10          4.4040    -0.5370     1.2240 ca         1 NBI      -0.083500
     16 C11          5.0500    -0.0740     0.0850 ca         1 NBI      -0.133000
     17 C12          4.2920     0.2690    -1.0250 ca         1 NBI      -0.083500
     18 C13          2.9080     0.1580    -1.0180 ca         1 NBI      -0.145000
     19 HN1          0.5630    -0.8120     1.1410 hn         1 NBI       0.155000
     20 H3          -1.0000    -2.6420    -0.1630 ha         1 NBI       0.134000
     21 H4          -3.2870    -3.3570     0.3890 ha         1 NBI       0.129000
     22 H5          -5.0840    -1.6760     0.6690 ha         1 NBI       0.132000
     23 H6          -4.5740     0.7210     0.4160 ha         1 NBI       0.153000
     24 H9           2.5330    -1.0180     2.1410 ha         1 NBI       0.127500
     25 H10          4.9730    -0.8120     2.1020 ha         1 NBI       0.114500
     26 H11          6.1280     0.0180     0.0640 ha         1 NBI       0.116000
     27 H12          4.7790     0.6320    -1.9210 ha         1 NBI       0.114500
     28 H13          2.3510     0.4350    -1.8970 ha         1 NBI       0.127500
@<TRIPOS>BOND
     1     1     4 ar  
     2     1     5 1   
     3     1    11 ar  
     4     2    12 1   
     5     2    13 1   
     6     2    19 1   
     7     3    12 2   
     8     4     7 ar  
     9     4    12 1   
    10     5     6 1   
    11     5     8 1   
    12     7     9 ar  
    13     7    20 1   
    14     9    10 ar  
    15     9    21 1   
    16    10    11 ar  
    17    10    22 1   
    18    11    23 1   
    19    13    14 ar  
    20    13    18 ar  
    21    14    15 ar  
    22    14    24 1   
    23    15    16 ar  
    24    15    25 1   
    25    16    17 ar  
    26    16    26 1   
    27    17    18 ar  
    28    17    27 1   
    29    18    28 1   
@<TRIPOS>SUBSTRUCTURE
     1 NBI         1 TEMP              0 ****  ****    0 ROOT
