@<TRIPOS>MOLECULE
NBI
   28    29     1     0     0
SMALL
No Charge or Current Charge


@<TRIPOS>ATOM
      1 C1          -2.6610     0.4120    -0.2760 ca         1 NBI      -0.133200
      2 N1           0.9410    -0.5300     0.2020 ns         1 NBI      -0.129000
      3 O1           0.0560     0.8300    -1.4320 o          1 NBI      -0.553100
      4 C2          -1.5020    -0.3960    -0.0640 ca         1 NBI      -0.099600
      5 N2          -2.5700     1.8010    -0.8150 no         1 NBI       0.694200
      6 O2          -3.3640     2.1160    -1.7120 o          1 NBI      -0.385000
      7 C3          -1.6760    -1.6740     0.5270 ca         1 NBI      -0.097000
      8 O3          -1.9140     2.6210    -0.1590 o          1 NBI      -0.385000
      9 C4          -2.9520    -2.1410     0.8830 ca         1 NBI      -0.075000
     10 C5          -4.0830    -1.3450     0.6550 ca         1 NBI      -0.102000
     11 C6          -3.9390    -0.0750     0.0800 ca         1 NBI      -0.054000
     12 C7          -0.1100     0.0570    -0.4950 c          1 NBI       0.630700
     13 C8           2.3540    -0.3900     0.1070 ca         1 NBI      -0.022000
     14 C9           3.1480    -1.2730     0.8650 ca         1 NBI      -0.145000
     15 C10          4.5510    -1.1920     0.8260 ca         1 NBI      -0.083500
     16 C11          5.1750    -0.2210     0.0270 ca         1 NBI      -0.133000
     17 C12          4.3950     0.6690    -0.7280 ca         1 NBI      -0.083500
     18 C13          2.9920     0.5890    -0.6890 ca         1 NBI      -0.145000
     19 HN1          0.6460    -1.1660     0.9310 hn         1 NBI       0.155000
     20 H3          -0.8300    -2.3380     0.6920 ha         1 NBI       0.134000
     21 H4          -3.0650    -3.1280     1.3280 ha         1 NBI       0.129000
     22 H5          -5.0700    -1.7100     0.9300 ha         1 NBI       0.132000
     23 H6          -4.8240     0.5410    -0.0750 ha         1 NBI       0.153000
     24 H9           2.6770    -2.0300     1.4890 ha         1 NBI       0.127500
     25 H10          5.1520    -1.8820     1.4140 ha         1 NBI       0.114500
     26 H11          6.2600    -0.1570    -0.0040 ha         1 NBI       0.116000
     27 H12          4.8790     1.4250    -1.3430 ha         1 NBI       0.114500
     28 H13          2.4230     1.3010    -1.2770 ha         1 NBI       0.127500
@<TRIPOS>BOND
     1     1     4 ar  
     2     1     5 1   
     3     1    11 ar  
     4     2    12 1   
     5     2    13 1   
     6     2    19 1   
     7     3    12 2   
     8     4     7 ar  
     9     4    12 1   
    10     5     6 1   
    11     5     8 1   
    12     7     9 ar  
    13     7    20 1   
    14     9    10 ar  
    15     9    21 1   
    16    10    11 ar  
    17    10    22 1   
    18    11    23 1   
    19    13    14 ar  
    20    13    18 ar  
    21    14    15 ar  
    22    14    24 1   
    23    15    16 ar  
    24    15    25 1   
    25    16    17 ar  
    26    16    26 1   
    27    17    18 ar  
    28    17    27 1   
    29    18    28 1   
@<TRIPOS>SUBSTRUCTURE
     1 NBI         1 TEMP              0 ****  ****    0 ROOT
