@<TRIPOS>MOLECULE
NBJ
   31    32     1     0     0
SMALL
abcg2


@<TRIPOS>ATOM
      1 C10         -5.1190   -10.5470    17.5600 c          1 NBJ       0.634700
      2 C11         -5.7890   -11.8350    17.9180 ca         1 NBJ      -0.152600
      3 C12         -6.4730   -13.4950    19.5140 ca         1 NBJ       0.189000
      4 C13         -5.8100   -12.3090    19.2320 ca         1 NBJ      -0.057000
      5 C14         -6.4370   -12.5480    16.9090 ca         1 NBJ      -0.042000
      6 C15         -7.0830   -13.7390    17.2080 ca         1 NBJ      -0.118000
      7 C16         -7.1080   -14.2220    18.5140 ca         1 NBJ      -0.058000
      8 C01         -3.8500    -9.4800    21.6300 ca         1 NBJ       0.264000
      9 C02         -3.4170   -10.1030    22.7850 ca         1 NBJ      -0.175000
     10 C03         -2.0850    -9.9830    23.1580 ca         1 NBJ      -0.027000
     11 C04         -1.1970    -9.2460    22.3800 ca         1 NBJ      -0.145000
     12 C05         -1.6420    -8.6270    21.2230 ca         1 NBJ       0.000000
     13 C06         -2.9790    -8.7360    20.8350 ca         1 NBJ      -0.367500
     14 I21         -6.5210   -14.1940    21.5090 i          1 NBJ      -0.309000
     15 N08         -3.2960    -9.1010    18.1150 n7         1 NBJ      -0.577300
     16 N09         -3.9950   -10.2790    18.2940 ns         1 NBJ      -0.381300
     17 O17         -5.5450    -9.8030    16.6930 o          1 NBJ      -0.524100
     18 S07         -3.4730    -7.9550    19.3230 sy         1 NBJ       1.161600
     19 H1          -5.3460   -11.7460    20.0270 ha         1 NBJ       0.128000
     20 H2          -6.4230   -12.1680    15.8970 ha         1 NBJ       0.140000
     21 H3          -7.5760   -14.3000    16.4250 ha         1 NBJ       0.126000
     22 H4          -7.6190   -15.1470    18.7420 ha         1 NBJ       0.131000
     23 H5          -4.1260   -10.6710    23.3730 ha         1 NBJ       0.142000
     24 H6          -1.7410   -10.4690    24.0620 ha         1 NBJ       0.125000
     25 H7          -0.1610    -9.1520    22.6730 ha         1 NBJ       0.128000
     26 H8          -0.9640    -8.0500    20.6100 ha         1 NBJ       0.141000
     27 H9          -2.3220    -9.2410    17.8580 hn         1 NBJ       0.473000
     28 H10         -3.5810   -10.9860    18.8850 hn         1 NBJ       0.322500
     29 F20         -5.1450    -9.6180    21.2900 f          1 NBJ      -0.151000
     30 O18         -2.5030    -6.9440    18.9940 o          1 NBJ      -0.512000
     31 O19         -4.8700    -7.6310    19.3950 o          1 NBJ      -0.512000
@<TRIPOS>BOND
     1     1     2 1   
     2     1    16 1   
     3     1    17 2   
     4     2     4 ar  
     5     2     5 ar  
     6     3     4 ar  
     7     3     7 ar  
     8     3    14 1   
     9     4    19 1   
    10     5     6 ar  
    11     5    20 1   
    12     6     7 ar  
    13     6    21 1   
    14     7    22 1   
    15     8     9 ar  
    16     8    13 ar  
    17     8    29 1   
    18     9    10 ar  
    19     9    23 1   
    20    10    11 ar  
    21    10    24 1   
    22    11    12 ar  
    23    11    25 1   
    24    12    13 ar  
    25    12    26 1   
    26    13    18 1   
    27    15    16 1   
    28    15    18 1   
    29    15    27 1   
    30    16    28 1   
    31    18    30 2   
    32    18    31 2   
@<TRIPOS>SUBSTRUCTURE
     1 NBJ         1 TEMP              0 ****  ****    0 ROOT
