@<TRIPOS>MOLECULE
NBJ
   31    32     1     0     0
SMALL
No Charge or Current Charge


@<TRIPOS>ATOM
      1 C10         -5.0810   -10.3000    17.7910 c          1 NBJ       0.634700
      2 C11         -5.4160   -11.6830    18.3040 ca         1 NBJ      -0.152600
      3 C12         -4.9160   -13.6450    19.6840 ca         1 NBJ       0.189000
      4 C13         -4.5590   -12.3790    19.1940 ca         1 NBJ      -0.057000
      5 C14         -6.6380   -12.2900    17.9300 ca         1 NBJ      -0.042000
      6 C15         -6.9860   -13.5630    18.4170 ca         1 NBJ      -0.118000
      7 C16         -6.1240   -14.2410    19.2960 ca         1 NBJ      -0.058000
      8 C01         -4.4960    -8.8830    21.0040 ca         1 NBJ       0.264000
      9 C02         -4.7970    -9.8210    22.0050 ca         1 NBJ      -0.175000
     10 C03         -3.7850   -10.6300    22.5460 ca         1 NBJ      -0.027000
     11 C04         -2.4670   -10.4980    22.0810 ca         1 NBJ      -0.145000
     12 C05         -2.1580    -9.5630    21.0780 ca         1 NBJ       0.000000
     13 C06         -3.1760    -8.7480    20.5330 ca         1 NBJ      -0.367500
     14 I21         -3.5990   -14.6660    21.0670 i          1 NBJ      -0.309000
     15 N08         -3.3300    -8.5020    17.8670 n7         1 NBJ      -0.577300
     16 N09         -3.7670    -9.8820    17.9750 ns         1 NBJ      -0.381300
     17 O17         -5.9250    -9.5730    17.2820 o          1 NBJ      -0.524100
     18 S07         -2.7890    -7.6050    19.1940 sy         1 NBJ       1.161600
     19 H1          -3.6250   -11.9450    19.5400 ha         1 NBJ       0.128000
     20 H2          -7.3220   -11.7770    17.2560 ha         1 NBJ       0.140000
     21 H3          -7.9270   -14.0200    18.1180 ha         1 NBJ       0.126000
     22 H4          -6.3940   -15.2220    19.6800 ha         1 NBJ       0.131000
     23 H5          -5.8210    -9.9230    22.3550 ha         1 NBJ       0.142000
     24 H6          -4.0210   -11.3580    23.3200 ha         1 NBJ       0.125000
     25 H7          -1.6820   -11.1260    22.4960 ha         1 NBJ       0.128000
     26 H8          -1.1300    -9.4870    20.7250 ha         1 NBJ       0.141000
     27 H9          -2.6510    -8.3150    17.1240 hn         1 NBJ       0.473000
     28 H10         -3.1350   -10.5900    18.3420 hn         1 NBJ       0.322500
     29 F20         -5.5060    -8.1480    20.4900 f          1 NBJ      -0.151000
     30 O18         -1.3320    -7.5280    19.0590 o          1 NBJ      -0.512000
     31 O19         -3.6400    -6.4130    19.2770 o          1 NBJ      -0.512000
@<TRIPOS>BOND
     1     1     2 1   
     2     1    16 1   
     3     1    17 2   
     4     2     4 ar  
     5     2     5 ar  
     6     3     4 ar  
     7     3     7 ar  
     8     3    14 1   
     9     4    19 1   
    10     5     6 ar  
    11     5    20 1   
    12     6     7 ar  
    13     6    21 1   
    14     7    22 1   
    15     8     9 ar  
    16     8    13 ar  
    17     8    29 1   
    18     9    10 ar  
    19     9    23 1   
    20    10    11 ar  
    21    10    24 1   
    22    11    12 ar  
    23    11    25 1   
    24    12    13 ar  
    25    12    26 1   
    26    13    18 1   
    27    15    16 1   
    28    15    18 1   
    29    15    27 1   
    30    16    28 1   
    31    18    30 2   
    32    18    31 2   
@<TRIPOS>SUBSTRUCTURE
     1 NBJ         1 TEMP              0 ****  ****    0 ROOT
