@<TRIPOS>MOLECULE
NBL
   52    53     1     0     0
SMALL
abcg2


@<TRIPOS>ATOM
      1 C1          -2.4090     3.4460     1.4690 c3         1 NBL      -0.089100
      2 C2          -1.9230     3.5610     0.0270 c3         1 NBL      -0.058700
      3 C3          -1.7160     5.0240    -0.3490 c3         1 NBL      -0.089100
      4 C4          -0.6220     2.7910    -0.2070 c3         1 NBL      -0.097400
      5 C5          -0.6860     1.2800     0.0430 c3         1 NBL       0.053700
      6 N6           0.6010     0.6530    -0.1570 ns         1 NBL      -0.493900
      7 C7           1.5060     0.5460     0.8340 c          1 NBL       0.640100
      8 O8           1.3110     0.8370     1.9960 o          1 NBL      -0.549000
      9 O9           2.6600     0.0540     0.3690 os         1 NBL      -0.454100
     10 C10          3.7180    -0.1220     1.3190 c3         1 NBL       0.231900
     11 C11          4.8830    -0.6940     0.5710 ca         1 NBL      -0.103300
     12 C12          5.8560     0.1460     0.0360 ca         1 NBL      -0.083000
     13 C13          6.9230    -0.3780    -0.6800 ca         1 NBL      -0.115500
     14 C14          7.0250    -1.7500    -0.8700 ca         1 NBL      -0.097000
     15 C15          6.0590    -2.5950    -0.3390 ca         1 NBL      -0.115500
     16 C16          4.9940    -2.0680     0.3780 ca         1 NBL      -0.083000
     17 C17         -1.6650     0.6290    -0.9260 c          1 NBL       0.593100
     18 O18         -1.3820     0.4890    -2.1070 o          1 NBL      -0.606100
     19 N19         -2.8440     0.2620    -0.4060 ns         1 NBL      -0.499900
     20 C20         -3.9060    -0.3170    -1.2050 c5         1 NBL       0.105700
     21 C21         -5.1960    -0.3810    -0.3910 c5         1 NBL      -0.113400
     22 C22         -5.0260    -1.6170     0.4880 c5         1 NBL       0.242800
     23 N23         -4.1520    -2.4610    -0.3290 n3         1 NBL      -0.662200
     24 C24         -3.6470    -1.7880    -1.5250 c5         1 NBL       0.226800
     25 C25         -3.8690    -3.6990    -0.0300 c1         1 NBL       0.457800
     26 N26         -3.6170    -4.8010     0.2370 n1         1 NBL      -0.514000
     27 H11         -3.3020     4.0530     1.6270 hc         1 NBL       0.034867
     28 H12A        -2.6640     2.4230     1.7500 hc         1 NBL       0.034867
     29 H13A        -1.6430     3.7960     2.1650 hc         1 NBL       0.034867
     30 H2          -2.7010     3.1560    -0.6320 hc         1 NBL       0.046700
     31 H31         -0.9500     5.4830     0.2810 hc         1 NBL       0.034867
     32 H32         -1.3950     5.1280    -1.3870 hc         1 NBL       0.034867
     33 H33         -2.6340     5.6000    -0.2250 hc         1 NBL       0.034867
     34 H41         -0.2810     2.9540    -1.2340 hc         1 NBL       0.060200
     35 H42          0.1550     3.2000     0.4470 hc         1 NBL       0.060200
     36 H5          -0.9940     1.0880     1.0720 h1         1 NBL       0.084700
     37 HN6          0.8970     0.4910    -1.1080 hn         1 NBL       0.346500
     38 H101         3.9810     0.8360     1.7700 h1         1 NBL       0.055700
     39 H102         3.3970    -0.7960     2.1160 h1         1 NBL       0.055700
     40 H12          5.7810     1.2160     0.1860 ha         1 NBL       0.115000
     41 H13          7.6760     0.2830    -1.0880 ha         1 NBL       0.114500
     42 H14          7.8590    -2.1610    -1.4240 ha         1 NBL       0.113000
     43 H15          6.1360    -3.6650    -0.4810 ha         1 NBL       0.114500
     44 H16          4.2450    -2.7310     0.7950 ha         1 NBL       0.115000
     45 H19         -2.9890     0.3710     0.5860 hn         1 NBL       0.323500
     46 H20         -4.0290     0.2640    -2.1190 h1         1 NBL       0.088700
     47 H211        -5.3810     0.5230     0.1890 hc         1 NBL       0.067200
     48 H212        -6.0350    -0.5160    -1.0750 hc         1 NBL       0.067200
     49 H221        -4.5490    -1.3820     1.4430 h1         1 NBL       0.050700
     50 H222        -5.9750    -2.1110     0.6960 h1         1 NBL       0.050700
     51 H241        -4.2090    -2.0900    -2.4120 h1         1 NBL       0.066700
     52 H242        -2.5940    -2.0120    -1.6900 h1         1 NBL       0.066700
@<TRIPOS>BOND
     1     1     2 1   
     2     1    27 1   
     3     1    28 1   
     4     1    29 1   
     5     2     3 1   
     6     2     4 1   
     7     2    30 1   
     8     3    31 1   
     9     3    32 1   
    10     3    33 1   
    11     4     5 1   
    12     4    34 1   
    13     4    35 1   
    14     5     6 1   
    15     5    17 1   
    16     5    36 1   
    17     6     7 1   
    18     6    37 1   
    19     7     8 2   
    20     7     9 1   
    21     9    10 1   
    22    10    11 1   
    23    10    38 1   
    24    10    39 1   
    25    11    12 ar  
    26    11    16 ar  
    27    12    13 ar  
    28    12    40 1   
    29    13    14 ar  
    30    13    41 1   
    31    14    15 ar  
    32    14    42 1   
    33    15    16 ar  
    34    15    43 1   
    35    16    44 1   
    36    17    18 2   
    37    17    19 1   
    38    19    20 1   
    39    19    45 1   
    40    20    21 1   
    41    20    24 1   
    42    20    46 1   
    43    21    22 1   
    44    21    47 1   
    45    21    48 1   
    46    22    23 1   
    47    22    49 1   
    48    22    50 1   
    49    23    24 1   
    50    23    25 1   
    51    24    51 1   
    52    24    52 1   
    53    25    26 3   
@<TRIPOS>SUBSTRUCTURE
     1 NBL         1 TEMP              0 ****  ****    0 ROOT
