@<TRIPOS>MOLECULE
NBL
   52    53     1     0     0
SMALL
No Charge or Current Charge


@<TRIPOS>ATOM
      1 C1          -2.4910     3.0700     1.6930 c3         1 NBL      -0.089100
      2 C2          -1.9910     3.3050     0.2470 c3         1 NBL      -0.058700
      3 C3          -1.9050     4.8180    -0.0560 c3         1 NBL      -0.089100
      4 C4          -0.6290     2.6090    -0.0400 c3         1 NBL      -0.097400
      5 C5          -0.5900     1.0590     0.1100 c3         1 NBL       0.053700
      6 N6           0.7960     0.5800    -0.0770 ns         1 NBL      -0.493900
      7 C7           1.7890     0.6570     0.8550 c          1 NBL       0.640100
      8 O8           1.6630     1.1110     1.9810 o          1 NBL      -0.549000
      9 O9           2.9240     0.1250     0.3300 os         1 NBL      -0.454100
     10 C10          4.0930     0.1020     1.1660 c3         1 NBL       0.231900
     11 C11          5.2340    -0.5280     0.3790 ca         1 NBL      -0.103300
     12 C12          6.0810     0.2740    -0.4110 ca         1 NBL      -0.083000
     13 C13          7.1350    -0.3080    -1.1370 ca         1 NBL      -0.115500
     14 C14          7.3480    -1.6960    -1.0790 ca         1 NBL      -0.097000
     15 C15          6.5050    -2.5010    -0.2950 ca         1 NBL      -0.115500
     16 C16          5.4500    -1.9200     0.4320 ca         1 NBL      -0.083000
     17 C17         -1.5280     0.3310    -0.8990 c          1 NBL       0.593100
     18 O18         -1.1230    -0.1420    -1.9560 o          1 NBL      -0.606100
     19 N19         -2.8490     0.2260    -0.5040 ns         1 NBL      -0.499900
     20 C20         -3.8000    -0.4770    -1.3870 c5         1 NBL       0.105700
     21 C21         -5.2070     0.0140    -0.9160 c5         1 NBL      -0.113400
     22 C22         -5.8470    -1.2500    -0.2790 c5         1 NBL       0.242800
     23 N23         -4.6720    -1.9980     0.2140 n3         1 NBL      -0.662200
     24 C24         -3.7560    -1.9760    -0.9510 c5         1 NBL       0.226800
     25 C25         -4.8190    -3.0940     0.9460 c1         1 NBL       0.457800
     26 N26         -4.9460    -4.0800     1.5460 n1         1 NBL      -0.514000
     27 H11         -3.4370     3.5970     1.8640 hc         1 NBL       0.034867
     28 H12A        -2.6660     2.0070     1.8910 hc         1 NBL       0.034867
     29 H13A        -1.7590     3.4390     2.4230 hc         1 NBL       0.034867
     30 H2          -2.7420     2.8960    -0.4390 hc         1 NBL       0.046700
     31 H31         -1.1730     5.3080     0.5970 hc         1 NBL       0.034867
     32 H32         -1.6050     4.9900    -1.0970 hc         1 NBL       0.034867
     33 H33         -2.8780     5.3010     0.0960 hc         1 NBL       0.034867
     34 H41         -0.3130     2.8610    -1.0600 hc         1 NBL       0.060200
     35 H42          0.1240     3.0460     0.6270 hc         1 NBL       0.060200
     36 H5          -0.9110     0.7770     1.1210 h1         1 NBL       0.084700
     37 HN6          1.0490     0.1560    -0.9620 hn         1 NBL       0.346500
     38 H101         4.3740     1.1200     1.4690 h1         1 NBL       0.055700
     39 H102         3.9090    -0.4820     2.0780 h1         1 NBL       0.055700
     40 H12          5.9220     1.3490    -0.4640 ha         1 NBL       0.115000
     41 H13          7.7860     0.3160    -1.7450 ha         1 NBL       0.114500
     42 H14          8.1630    -2.1460    -1.6410 ha         1 NBL       0.113000
     43 H15          6.6670    -3.5760    -0.2500 ha         1 NBL       0.114500
     44 H16          4.8010    -2.5510     1.0340 ha         1 NBL       0.115000
     45 H19         -3.1000     0.5980     0.4040 hn         1 NBL       0.323500
     46 H20         -3.6150    -0.3280    -2.4610 h1         1 NBL       0.088700
     47 H211        -5.1590     0.8360    -0.1910 hc         1 NBL       0.067200
     48 H212        -5.8110     0.3760    -1.7550 hc         1 NBL       0.067200
     49 H221        -6.5460    -0.9870     0.5270 h1         1 NBL       0.050700
     50 H222        -6.4030    -1.8340    -1.0270 h1         1 NBL       0.050700
     51 H241        -4.1230    -2.6270    -1.7570 h1         1 NBL       0.066700
     52 H242        -2.7390    -2.3060    -0.6970 h1         1 NBL       0.066700
@<TRIPOS>BOND
     1     1     2 1   
     2     1    27 1   
     3     1    28 1   
     4     1    29 1   
     5     2     3 1   
     6     2     4 1   
     7     2    30 1   
     8     3    31 1   
     9     3    32 1   
    10     3    33 1   
    11     4     5 1   
    12     4    34 1   
    13     4    35 1   
    14     5     6 1   
    15     5    17 1   
    16     5    36 1   
    17     6     7 1   
    18     6    37 1   
    19     7     8 2   
    20     7     9 1   
    21     9    10 1   
    22    10    11 1   
    23    10    38 1   
    24    10    39 1   
    25    11    12 ar  
    26    11    16 ar  
    27    12    13 ar  
    28    12    40 1   
    29    13    14 ar  
    30    13    41 1   
    31    14    15 ar  
    32    14    42 1   
    33    15    16 ar  
    34    15    43 1   
    35    16    44 1   
    36    17    18 2   
    37    17    19 1   
    38    19    20 1   
    39    19    45 1   
    40    20    21 1   
    41    20    24 1   
    42    20    46 1   
    43    21    22 1   
    44    21    47 1   
    45    21    48 1   
    46    22    23 1   
    47    22    49 1   
    48    22    50 1   
    49    23    24 1   
    50    23    25 1   
    51    24    51 1   
    52    24    52 1   
    53    25    26 3   
@<TRIPOS>SUBSTRUCTURE
     1 NBL         1 TEMP              0 ****  ****    0 ROOT
