@<TRIPOS>MOLECULE
NBM
   46    49     1     0     0
SMALL
bcc


@<TRIPOS>ATOM
      1 C01         -4.8690    -0.4390    -1.0750 ca         1 NBM      -0.126500
      2 C02         -6.1010     0.1580    -1.2740 ca         1 NBM      -0.063500
      3 C03         -6.7940     0.6400    -0.1730 ca         1 NBM      -0.176200
      4 C04         -6.2820     0.5380     1.1120 ca         1 NBM      -0.063500
      5 C05         -5.0500    -0.0640     1.2910 ca         1 NBM      -0.126500
      6 C06         -4.3360    -0.5640     0.2060 ca         1 NBM      -0.036300
      7 C07         -2.9980    -1.2070     0.4090 c3         1 NBM       0.029000
      8 C09         -0.2690    -0.7870     0.4660 ca         1 NBM       0.598600
      9 C11          0.8700    -2.7290     0.8910 ca         1 NBM       0.669900
     10 C13          2.0870    -0.9300     0.5450 ca         1 NBM       0.438800
     11 C14          0.9570    -0.1320     0.3640 ca         1 NBM      -0.150200
     12 C16          2.6160     1.1490     0.1420 cc         1 NBM       0.430700
     13 C18          4.5510    -0.4480     0.4400 c5         1 NBM       0.263800
     14 C19          5.1370    -0.7570    -0.9420 c5         1 NBM       0.112100
     15 C20          6.5900    -0.3100    -0.7610 c5         1 NBM       0.078100
     16 C21          6.3890     0.9360     0.1000 c5         1 NBM       0.104100
     17 C23          6.1320     2.1770    -0.7350 c3         1 NBM       0.119400
     18 N10         -0.2880    -2.0840     0.7280 nb         1 NBM      -0.758000
     19 N12          2.0880    -2.2270     0.8120 nb         1 NBM      -0.685000
     20 N15          1.3140     1.1640     0.1160 nd         1 NBM      -0.546100
     21 N17          3.1450    -0.0860     0.3950 na         1 NBM      -0.265000
     22 N27         -8.0910     1.2690    -0.3710 no         1 NBM       0.314200
     23 O22          5.2730     0.6300     0.9440 os         1 NBM      -0.377600
     24 O24          5.7400     3.2200     0.1200 oh         1 NBM      -0.577800
     25 O25          7.2720    -1.3300    -0.0840 oh         1 NBM      -0.560800
     26 O26          4.9280    -2.0960    -1.2520 oh         1 NBM      -0.544800
     27 O28         -8.5400     1.3030    -1.4920 o          1 NBM      -0.208500
     28 O29         -8.6540     1.7260     0.5950 o          1 NBM      -0.208500
     29 S08         -1.7480     0.1080     0.2420 ss         1 NBM      -0.240400
     30 H011        -4.3210    -0.8190    -1.9270 ha         1 NBM       0.150500
     31 H021        -6.5030     0.2420    -2.2730 ha         1 NBM       0.171000
     32 H041        -6.8270     0.9130     1.9660 ha         1 NBM       0.171000
     33 H051        -4.6460    -0.1540     2.2910 ha         1 NBM       0.150500
     34 H071        -2.9170    -1.6560     1.3970 h1         1 NBM       0.090200
     35 H072        -2.8090    -1.9730    -0.3420 h1         1 NBM       0.090200
     36 H111         0.7930    -3.7870     1.1110 h5         1 NBM       0.052100
     37 H161         3.2430     2.0180     0.0090 h5         1 NBM       0.080800
     38 H181         4.6230    -1.3240     1.0920 h2         1 NBM       0.127700
     39 H191         4.6670    -0.0950    -1.6810 h1         1 NBM       0.045700
     40 H201         7.0660    -0.0640    -1.7190 h1         1 NBM       0.052700
     41 H211         7.2480     1.1180     0.7530 h1         1 NBM       0.092700
     42 H231         7.0600     2.4100    -1.2730 h1         1 NBM       0.022200
     43 H232         5.3680     1.9760    -1.4990 h1         1 NBM       0.022200
     44 H241         5.5970     4.0060    -0.4150 ho         1 NBM       0.410000
     45 H251         8.1780    -1.0440     0.0660 ho         1 NBM       0.409000
     46 H261         5.1480    -2.2350    -2.1790 ho         1 NBM       0.414000
@<TRIPOS>BOND
     1     1     2 ar  
     2     1     6 ar  
     3     1    30 1   
     4     2     3 ar  
     5     2    31 1   
     6     3     4 ar  
     7     3    22 1   
     8     4     5 ar  
     9     4    32 1   
    10     5     6 ar  
    11     5    33 1   
    12     6     7 1   
    13     7    29 1   
    14     7    34 1   
    15     7    35 1   
    16     8    11 ar  
    17     8    18 ar  
    18     8    29 1   
    19     9    18 ar  
    20     9    19 ar  
    21     9    36 1   
    22    10    11 ar  
    23    10    19 ar  
    24    10    21 1   
    25    11    20 1   
    26    12    20 2   
    27    12    21 1   
    28    12    37 1   
    29    13    14 1   
    30    13    21 1   
    31    13    23 1   
    32    13    38 1   
    33    14    15 1   
    34    14    26 1   
    35    14    39 1   
    36    15    16 1   
    37    15    25 1   
    38    15    40 1   
    39    16    17 1   
    40    16    23 1   
    41    16    41 1   
    42    17    24 1   
    43    17    42 1   
    44    17    43 1   
    45    22    27 1   
    46    22    28 1   
    47    24    44 1   
    48    25    45 1   
    49    26    46 1   
@<TRIPOS>SUBSTRUCTURE
     1 NBM         1 TEMP              0 ****  ****    0 ROOT
