@<TRIPOS>MOLECULE
NBM
   46    49     1     0     0
SMALL
No Charge or Current Charge


@<TRIPOS>ATOM
      1 C01         -5.2210    -0.9300    -0.6150 ca         1 NBM      -0.108500
      2 C02         -6.5020    -0.4150    -0.8810 ca         1 NBM      -0.045500
      3 C03         -7.0450     0.6070    -0.0660 ca         1 NBM      -0.176200
      4 C04         -6.2770     1.1010     1.0150 ca         1 NBM      -0.045500
      5 C05         -4.9970     0.5800     1.2730 ca         1 NBM      -0.108500
      6 C06         -4.4630    -0.4380     0.4620 ca         1 NBM      -0.036300
      7 C07         -3.0760    -0.9970     0.7450 c3         1 NBM       0.076900
      8 C09         -0.2430    -0.8370     0.2780 ca         1 NBM       0.270300
      9 C11          0.9220    -2.4590     1.4360 ca         1 NBM       0.143900
     10 C13          2.1460    -1.0280     0.1440 ca         1 NBM       0.110500
     11 C14          0.9930    -0.3820    -0.2350 ca         1 NBM      -0.019600
     12 C16          2.5860     0.6480    -1.2550 cc         1 NBM       0.430700
     13 C18          4.5870    -0.7180    -0.4260 c5         1 NBM       0.316300
     14 C19          5.5250    -0.2830    -1.6140 c5         1 NBM       0.135300
     15 C20          6.8670    -0.0640    -0.8620 c5         1 NBM       0.101300
     16 C21          6.3310     0.6330     0.4320 c5         1 NBM       0.127300
     17 C23          5.9510     2.1350     0.2400 c3         1 NBM       0.142600
     18 N10         -0.2690    -1.8920     1.1260 nb         1 NBM      -0.232000
     19 N12          2.1400    -2.0800     0.9850 nb         1 NBM      -0.159000
     20 N15          1.2480     0.6720    -1.1130 nd         1 NBM      -0.546100
     21 N17          3.1620    -0.3790    -0.4990 na         1 NBM      -0.294300
     22 N27         -8.4100     1.1600    -0.3460 no         1 NBM       0.694200
     23 O22          5.1540    -0.1410     0.7780 os         1 NBM      -0.424000
     24 O24          5.6760     2.7660     1.5020 oh         1 NBM      -0.700000
     25 O25          7.5180    -1.3240    -0.6020 oh         1 NBM      -0.683000
     26 O26          5.6850    -1.2790    -2.6310 oh         1 NBM      -0.667000
     27 O28         -9.0450     0.6970    -1.3030 o          1 NBM      -0.398500
     28 O29         -8.8430     2.0540     0.3940 o          1 NBM      -0.398500
     29 S08         -1.7870    -0.0400    -0.1750 ss         1 NBM      -0.288300
     30 H011        -4.8170    -1.7140    -1.2530 ha         1 NBM       0.132500
     31 H021        -7.0660    -0.8160    -1.7220 ha         1 NBM       0.153000
     32 H041        -6.6630     1.8880     1.6610 ha         1 NBM       0.153000
     33 H051        -4.4180     0.9720     2.1070 ha         1 NBM       0.132500
     34 H071        -2.8660    -0.9460     1.8210 h1         1 NBM       0.090200
     35 H072        -3.0310    -2.0510     0.4400 h1         1 NBM       0.090200
     36 H111         0.8960    -3.3070     2.1170 h5         1 NBM       0.052100
     37 H161         3.1670     1.3290    -1.8660 h5         1 NBM       0.080800
     38 H181         4.6260    -1.8110    -0.3340 h2         1 NBM       0.127700
     39 H191         5.1910     0.6590    -2.0670 h1         1 NBM       0.045700
     40 H201         7.5360     0.6010    -1.4250 h1         1 NBM       0.052700
     41 H211         7.0610     0.5690     1.2500 h1         1 NBM       0.092700
     42 H231         6.7900     2.6450    -0.2520 h1         1 NBM       0.022200
     43 H232         5.0800     2.2190    -0.4230 h1         1 NBM       0.022200
     44 H241         5.4300     3.7020     1.3130 ho         1 NBM       0.509000
     45 H251         8.3480    -1.1360    -0.1030 ho         1 NBM       0.508000
     46 H261         6.4580    -1.8120    -2.3150 ho         1 NBM       0.513000
@<TRIPOS>BOND
     1     1     2 ar  
     2     1     6 ar  
     3     1    30 1   
     4     2     3 ar  
     5     2    31 1   
     6     3     4 ar  
     7     3    22 1   
     8     4     5 ar  
     9     4    32 1   
    10     5     6 ar  
    11     5    33 1   
    12     6     7 1   
    13     7    29 1   
    14     7    34 1   
    15     7    35 1   
    16     8    11 ar  
    17     8    18 ar  
    18     8    29 1   
    19     9    18 ar  
    20     9    19 ar  
    21     9    36 1   
    22    10    11 ar  
    23    10    19 ar  
    24    10    21 1   
    25    11    20 1   
    26    12    20 2   
    27    12    21 1   
    28    12    37 1   
    29    13    14 1   
    30    13    21 1   
    31    13    23 1   
    32    13    38 1   
    33    14    15 1   
    34    14    26 1   
    35    14    39 1   
    36    15    16 1   
    37    15    25 1   
    38    15    40 1   
    39    16    17 1   
    40    16    23 1   
    41    16    41 1   
    42    17    24 1   
    43    17    42 1   
    44    17    43 1   
    45    22    27 1   
    46    22    28 1   
    47    24    44 1   
    48    25    45 1   
    49    26    46 1   
@<TRIPOS>SUBSTRUCTURE
     1 NBM         1 TEMP              0 ****  ****    0 ROOT
