@<TRIPOS>MOLECULE
NBN
   15    14     1     0     0
SMALL
bcc


@<TRIPOS>ATOM
      1 C           16.7560    27.2130     4.4550 c1         1 NBN       0.414800
      2 N           17.8250    27.1910     4.9100 n1         1 NBN      -0.839300
      3 C1          19.1240    27.1990     5.4870 c3         1 NBN       0.279100
      4 C2          19.2880    28.3150     6.5100 c3         1 NBN      -0.092400
      5 C3          19.1420    29.7130     5.9260 c3         1 NBN      -0.076400
      6 C4          19.3850    30.7980     6.9660 c3         1 NBN      -0.089100
      7 H11         19.2910    26.2250     5.9470 h1         1 NBN       0.055700
      8 H12         19.8480    27.3090     4.6780 h1         1 NBN       0.055700
      9 H21         18.5730    28.1670     7.3240 hc         1 NBN       0.050700
     10 H22         20.2840    28.1980     6.9450 hc         1 NBN       0.050700
     11 H31         19.8460    29.8340     5.0970 hc         1 NBN       0.043700
     12 H32         18.1430    29.8350     5.5000 hc         1 NBN       0.043700
     13 H41         19.2740    31.7930     6.5350 hc         1 NBN       0.034033
     14 H42         18.6790    30.7160     7.7940 hc         1 NBN       0.034033
     15 H43         20.3920    30.7270     7.3830 hc         1 NBN       0.034033
@<TRIPOS>BOND
     1     1     2 3   
     2     2     3 1   
     3     3     4 1   
     4     3     7 1   
     5     3     8 1   
     6     4     5 1   
     7     4     9 1   
     8     4    10 1   
     9     5     6 1   
    10     5    11 1   
    11     5    12 1   
    12     6    13 1   
    13     6    14 1   
    14     6    15 1   
@<TRIPOS>SUBSTRUCTURE
     1 NBN         1 TEMP              0 ****  ****    0 ROOT
