@<TRIPOS>MOLECULE
NBN
   15    14     1     0     0
SMALL
No Charge or Current Charge


@<TRIPOS>ATOM
      1 C           16.6900    27.1120     4.4880 c1         1 NBN       0.504000
      2 N           17.7680    27.1560     4.9400 n1         1 NBN      -0.928500
      3 C1          19.1240    27.1730     5.4520 c3         1 NBN       0.279100
      4 C2          19.2850    28.3000     6.5000 c3         1 NBN      -0.092400
      5 C3          19.1740    29.7340     5.9250 c3         1 NBN      -0.076400
      6 C4          19.3910    30.8290     6.9880 c3         1 NBN      -0.089100
      7 H11         19.3420    26.2020     5.9200 h1         1 NBN       0.055700
      8 H12         19.8310    27.3240     4.6230 h1         1 NBN       0.055700
      9 H21         18.5430    28.1630     7.2970 hc         1 NBN       0.050700
     10 H22         20.2700    28.1870     6.9690 hc         1 NBN       0.050700
     11 H31         19.9130    29.8630     5.1250 hc         1 NBN       0.043700
     12 H32         18.1850    29.8750     5.4720 hc         1 NBN       0.043700
     13 H41         19.3030    31.8240     6.5360 hc         1 NBN       0.034033
     14 H42         18.6440    30.7480     7.7870 hc         1 NBN       0.034033
     15 H43         20.3880    30.7430     7.4360 hc         1 NBN       0.034033
@<TRIPOS>BOND
     1     1     2 3   
     2     2     3 1   
     3     3     4 1   
     4     3     7 1   
     5     3     8 1   
     6     4     5 1   
     7     4     9 1   
     8     4    10 1   
     9     5     6 1   
    10     5    11 1   
    11     5    12 1   
    12     6    13 1   
    13     6    14 1   
    14     6    15 1   
@<TRIPOS>SUBSTRUCTURE
     1 NBN         1 TEMP              0 ****  ****    0 ROOT
