@<TRIPOS>MOLECULE
NBO
   33    34     1     0     0
SMALL
abcg2


@<TRIPOS>ATOM
      1 C1           5.7960     0.6010    -1.5160 c3         1 NBO      -0.202100
      2 O1           5.5320     0.3370     0.8370 o          1 NBO      -0.520100
      3 C2           5.0110     0.3570    -0.2550 c          1 NBO       0.570100
      4 C3           3.5310     0.1400    -0.4420 c3         1 NBO      -0.184400
      5 C4           2.7540    -0.0940     0.8490 c3         1 NBO      -0.018100
      6 C10          0.8460    -1.5800     0.1100 ca         1 NBO      -0.096000
      7 C12          1.2940    -0.3160     0.5710 ca         1 NBO      -0.093300
      8 C11         -5.9530     0.7860    -0.4220 c3         1 NBO       0.150900
      9 C13          0.3740     0.6890     0.7190 ca         1 NBO      -0.083000
     10 C14         -0.9950     0.4890     0.4200 ca         1 NBO      -0.068000
     11 C15         -1.9540     1.5140     0.5600 ca         1 NBO      -0.062000
     12 C5          -3.2740     1.3050     0.2620 ca         1 NBO      -0.178000
     13 C6          -3.7050     0.0370    -0.1940 ca         1 NBO       0.141100
     14 C7          -2.7920    -0.9820    -0.3390 ca         1 NBO      -0.150000
     15 C8          -1.4310    -0.7790    -0.0400 ca         1 NBO       0.000000
     16 C9          -0.4670    -1.8090    -0.1840 ca         1 NBO      -0.106000
     17 H1           6.8560     0.7340    -1.3070 hc         1 NBO       0.060367
     18 H1A          5.6690    -0.2340    -2.2060 hc         1 NBO       0.060367
     19 H1B          5.4180     1.4880    -2.0260 hc         1 NBO       0.060367
     20 H3           3.1270     1.0070    -0.9760 hc         1 NBO       0.063700
     21 H3A          3.4010    -0.7010    -1.1330 hc         1 NBO       0.063700
     22 H4           3.1670    -0.9590     1.3740 hc         1 NBO       0.059700
     23 H4A          2.8770     0.7640     1.5120 hc         1 NBO       0.059700
     24 H10          1.5670    -2.3820    -0.0040 ha         1 NBO       0.111000
     25 H11         -6.8980     0.3440    -0.7300 h1         1 NBO       0.040033
     26 H11A        -6.0630     1.1700     0.5960 h1         1 NBO       0.040033
     27 H11B        -5.7230     1.6200    -1.0900 h1         1 NBO       0.040033
     28 H2           0.6920     1.6640     1.0720 ha         1 NBO       0.111000
     29 H6          -1.6350     2.4890     0.9090 ha         1 NBO       0.113000
     30 H5          -3.9740     2.1210     0.3820 ha         1 NBO       0.117000
     31 H7          -3.1230    -1.9530    -0.6900 ha         1 NBO       0.128000
     32 H9          -0.7880    -2.7850    -0.5290 ha         1 NBO       0.115000
     33 O2          -4.9870    -0.2420    -0.5030 os         1 NBO      -0.344100
@<TRIPOS>BOND
     1     1     3 1   
     2     1    17 1   
     3     1    18 1   
     4     1    19 1   
     5     2     3 2   
     6     3     4 1   
     7     4     5 1   
     8     4    20 1   
     9     4    21 1   
    10     5     7 1   
    11     5    22 1   
    12     5    23 1   
    13     6     7 ar  
    14     6    16 ar  
    15     6    24 1   
    16     7     9 ar  
    17     8    25 1   
    18     8    26 1   
    19     8    27 1   
    20     8    33 1   
    21     9    10 ar  
    22     9    28 1   
    23    10    11 ar  
    24    10    15 ar  
    25    11    12 ar  
    26    11    29 1   
    27    12    13 ar  
    28    12    30 1   
    29    13    14 ar  
    30    13    33 1   
    31    14    15 ar  
    32    14    31 1   
    33    15    16 ar  
    34    16    32 1   
@<TRIPOS>SUBSTRUCTURE
     1 NBO         1 TEMP              0 ****  ****    0 ROOT
