@<TRIPOS>MOLECULE
NBO
   33    34     1     0     0
SMALL
No Charge or Current Charge


@<TRIPOS>ATOM
      1 C1           5.9550    -0.1210    -0.9310 c3         1 NBO      -0.202100
      2 O1           5.3840     1.8600     0.3080 o          1 NBO      -0.520100
      3 C2           4.9870     0.9080    -0.3500 c          1 NBO       0.570100
      4 C3           3.4960     0.6860    -0.6290 c3         1 NBO      -0.184400
      5 C4           2.8050    -0.0330     0.5520 c3         1 NBO      -0.018100
      6 C10          0.9020    -1.4870    -0.3020 ca         1 NBO      -0.096000
      7 C12          1.3270    -0.2770     0.2800 ca         1 NBO      -0.093300
      8 C11         -6.1060     0.7030    -0.1560 c3         1 NBO       0.150900
      9 C13          0.3750     0.7100     0.6010 ca         1 NBO      -0.083000
     10 C14         -0.9920     0.4900     0.3460 ca         1 NBO      -0.068000
     11 C15         -1.9430     1.4760     0.6670 ca         1 NBO      -0.062000
     12 C5          -3.3080     1.2540     0.4110 ca         1 NBO      -0.178000
     13 C6          -3.7290     0.0380    -0.1710 ca         1 NBO       0.141100
     14 C7          -2.7780    -0.9450    -0.4910 ca         1 NBO      -0.150000
     15 C8          -1.4120    -0.7250    -0.2360 ca         1 NBO       0.000000
     16 C9          -0.4620    -1.7110    -0.5580 ca         1 NBO      -0.106000
     17 H1           6.9970     0.0760    -0.6580 hc         1 NBO       0.060367
     18 H1A          5.6350    -1.1250    -0.6280 hc         1 NBO       0.060367
     19 H1B          5.8240    -0.1550    -2.0190 hc         1 NBO       0.060367
     20 H3           3.0080     1.6540    -0.7880 hc         1 NBO       0.063700
     21 H3A          3.3810     0.0480    -1.5140 hc         1 NBO       0.063700
     22 H4           3.3140    -0.9850     0.7470 hc         1 NBO       0.059700
     23 H4A          2.9250     0.5680     1.4620 hc         1 NBO       0.059700
     24 H10          1.6290    -2.2550    -0.5580 ha         1 NBO       0.111000
     25 H11         -7.0780     0.2870    -0.4510 h1         1 NBO       0.040033
     26 H11A        -6.1450     0.9280     0.9180 h1         1 NBO       0.040033
     27 H11B        -5.9560     1.6400    -0.7070 h1         1 NBO       0.040033
     28 H2           0.6990     1.6480     1.0470 ha         1 NBO       0.111000
     29 H6          -1.6260     2.4160     1.1150 ha         1 NBO       0.113000
     30 H5          -4.0180     2.0330     0.6700 ha         1 NBO       0.117000
     31 H7          -3.1070    -1.8790    -0.9380 ha         1 NBO       0.128000
     32 H9          -0.7770    -2.6500    -1.0080 ha         1 NBO       0.115000
     33 O2          -5.0540    -0.2350    -0.4440 os         1 NBO      -0.344100
@<TRIPOS>BOND
     1     1     3 1   
     2     1    17 1   
     3     1    18 1   
     4     1    19 1   
     5     2     3 2   
     6     3     4 1   
     7     4     5 1   
     8     4    20 1   
     9     4    21 1   
    10     5     7 1   
    11     5    22 1   
    12     5    23 1   
    13     6     7 ar  
    14     6    16 ar  
    15     6    24 1   
    16     7     9 ar  
    17     8    25 1   
    18     8    26 1   
    19     8    27 1   
    20     8    33 1   
    21     9    10 ar  
    22     9    28 1   
    23    10    11 ar  
    24    10    15 ar  
    25    11    12 ar  
    26    11    29 1   
    27    12    13 ar  
    28    12    30 1   
    29    13    14 ar  
    30    13    33 1   
    31    14    15 ar  
    32    14    31 1   
    33    15    16 ar  
    34    16    32 1   
@<TRIPOS>SUBSTRUCTURE
     1 NBO         1 TEMP              0 ****  ****    0 ROOT
