@<TRIPOS>MOLECULE
NBP
   73    77     1     0     0
SMALL
abcg2


@<TRIPOS>ATOM
      1 PA          23.8150    19.6560    46.0260 p5         1 NBP       1.525800
      2 O1A         24.4540    19.6720    44.6650 o          1 NBP      -0.849500
      3 O2A         24.6650    19.5660    47.2460 o          1 NBP      -0.849500
      4 O5B         22.7120    18.4810    45.9840 os         1 NBP      -0.655400
      5 C5B         22.4120    17.6570    47.1140 c3         1 NBP       0.209600
      6 C4B         21.8720    16.3290    46.6280 c5         1 NBP       0.155300
      7 O4B         22.7860    15.7310    45.6720 os         1 NBP      -0.472000
      8 C3B         21.7050    15.3300    47.7780 c5         1 NBP       0.126300
      9 O3B         20.5070    14.5980    47.6300 oh         1 NBP      -0.825000
     10 C2B         22.9560    14.4300    47.6260 c5         1 NBP       0.189300
     11 O2B         22.8380    13.1050    48.0640 os         1 NBP      -0.579400
     12 C1B         23.1340    14.4370    46.1100 c5         1 NBP       0.276300
     13 N9A         24.4620    14.0920    45.6330 na         1 NBP      -0.219300
     14 C8A         25.6810    14.7250    45.7960 cc         1 NBP       0.399800
     15 BR8         25.8580    16.3870    46.6410 br         1 NBP       0.079700
     16 N7A         26.6850    14.0830    45.2670 nd         1 NBP      -0.601100
     17 C5A         26.1190    12.9460    44.7160 ca         1 NBP      -0.086600
     18 C6A         26.6640    11.8540    44.0140 ca         1 NBP       0.419900
     19 N6A         27.9730    11.7380    43.7450 nv         1 NBP      -1.098900
     20 N1A         25.8200    10.8930    43.5930 nb         1 NBP      -0.337000
     21 C2A         24.5150    11.0140    43.8580 ca         1 NBP       0.134900
     22 N3A         23.8930    11.9920    44.5160 nb         1 NBP      -0.152000
     23 C4A         24.7440    12.9360    44.9260 ca         1 NBP       0.144500
     24 O3          22.9280    21.0150    46.0650 os         1 NBP      -0.759800
     25 PN          21.5750    21.5310    46.8120 p5         1 NBP       1.494800
     26 O1N         21.8090    22.9410    47.2290 o          1 NBP      -0.851000
     27 O2N         21.1010    20.5060    47.7870 o          1 NBP      -0.851000
     28 O5D         20.5600    21.6170    45.5430 os         1 NBP      -0.648400
     29 C5D         20.1710    20.4560    44.8070 c3         1 NBP       0.216600
     30 C4D         20.4280    20.6470    43.3310 c5         1 NBP       0.112300
     31 O4D         19.6870    21.8060    42.8440 os         1 NBP      -0.436000
     32 C3D         21.8810    20.9110    42.9160 c5         1 NBP       0.190300
     33 O3D         22.6270    19.7390    42.7560 oh         1 NBP      -0.751000
     34 C2D         21.7030    21.7170    41.6240 c5         1 NBP       0.098300
     35 O2D         21.4010    20.8340    40.5620 oh         1 NBP      -0.655000
     36 C1D         20.4550    22.5500    41.9660 c5         1 NBP       0.247300
     37 N1N         20.8420    23.8830    42.5960 na         1 NBP       0.017300
     38 C2N         20.5070    24.1700    43.8580 ca         1 NBP       0.049000
     39 C3N         20.8710    25.3820    44.4220 ca         1 NBP      -0.148600
     40 C7N         20.3930    25.6580    45.8220 c          1 NBP       0.645700
     41 O7N         19.3130    25.2130    46.1960 o          1 NBP      -0.565100
     42 N7N         21.1910    26.4260    46.5780 nt         1 NBP      -0.579000
     43 C4N         21.5840    26.2940    43.6530 ca         1 NBP      -0.037000
     44 C5N         21.8930    25.9820    42.3330 ca         1 NBP      -0.146000
     45 C6N         21.5060    24.7670    41.8220 ca         1 NBP      -0.055300
     46 P2B         22.4300    12.7610    49.6670 p5         1 NBP       1.293900
     47 O1X         23.3160    13.6480    50.5230 o          1 NBP      -0.879500
     48 O2X         22.7010    11.2730    49.7450 o          1 NBP      -0.879500
     49 O3X         20.9370    13.1250    49.7490 o          1 NBP      -0.879500
     50 H51A        23.3120    17.5130    47.7090 h1         1 NBP       0.063700
     51 H52A        21.6570    18.1540    47.7250 h1         1 NBP       0.063700
     52 H4B         20.9150    16.4740    46.1220 h1         1 NBP       0.054700
     53 H3B         21.7240    15.8430    48.7450 h1         1 NBP       0.063700
     54 HO3A        20.5200    13.9650    48.4110 ho         1 NBP       0.601000
     55 H2B         23.8020    14.9250    48.1090 h1         1 NBP       0.046700
     56 H1B         22.4790    13.6780    45.6780 h2         1 NBP       0.099700
     57 H61A        28.3170    10.9130    43.2820 hn         1 NBP       0.485500
     58 H62A        28.6320    12.4150    44.0910 hn         1 NBP       0.485500
     59 H2A         23.8850    10.2110    43.4900 h5         1 NBP       0.021100
     60 H51N        20.7210    19.5720    45.1360 h1         1 NBP       0.071700
     61 H52N        19.1070    20.2840    44.9770 h1         1 NBP       0.071700
     62 H4D         20.0600    19.7650    42.8010 h1         1 NBP       0.085700
     63 H3D         22.3460    21.5680    43.6550 h1         1 NBP       0.084700
     64 HO3N        23.3310    19.7100    43.4590 ho         1 NBP       0.619000
     65 H2D         22.5730    22.3340    41.3940 h1         1 NBP       0.048700
     66 HO2N        21.4100    21.3310    39.7340 ho         1 NBP       0.468000
     67 H1D         19.8790    22.8210    41.0820 h2         1 NBP       0.066700
     68 H2N         19.9730    23.4110    44.4050 h4         1 NBP       0.263000
     69 H71N        22.1290    26.6630    46.3000 hn         1 NBP       0.320000
     70 H72N        20.9210    26.6160    47.5310 hn         1 NBP       0.320000
     71 H4N         21.8760    27.2530    44.0590 ha         1 NBP       0.130000
     72 H5N         22.4250    26.6770    41.7010 ha         1 NBP       0.133000
     73 H6N         21.7030    24.4680    40.8030 h4         1 NBP       0.149000
@<TRIPOS>BOND
     1     1     2 1   
     2     1     3 1   
     3     1     4 1   
     4     1    24 1   
     5     4     5 1   
     6     5     6 1   
     7     5    50 1   
     8     5    51 1   
     9     6     7 1   
    10     6     8 1   
    11     6    52 1   
    12     7    12 1   
    13     8     9 1   
    14     8    10 1   
    15     8    53 1   
    16     9    54 1   
    17    10    11 1   
    18    10    12 1   
    19    10    55 1   
    20    11    46 1   
    21    12    13 1   
    22    12    56 1   
    23    13    14 1   
    24    13    23 1   
    25    14    15 1   
    26    14    16 2   
    27    16    17 1   
    28    17    18 ar  
    29    17    23 ar  
    30    18    19 1   
    31    18    20 ar  
    32    19    57 1   
    33    19    58 1   
    34    20    21 ar  
    35    21    22 ar  
    36    21    59 1   
    37    22    23 ar  
    38    24    25 1   
    39    25    26 1   
    40    25    27 1   
    41    25    28 1   
    42    28    29 1   
    43    29    30 1   
    44    29    60 1   
    45    29    61 1   
    46    30    31 1   
    47    30    32 1   
    48    30    62 1   
    49    31    36 1   
    50    32    33 1   
    51    32    34 1   
    52    32    63 1   
    53    33    64 1   
    54    34    35 1   
    55    34    36 1   
    56    34    65 1   
    57    35    66 1   
    58    36    37 1   
    59    36    67 1   
    60    37    38 1   
    61    37    45 2   
    62    38    39 ar  
    63    38    68 1   
    64    39    40 1   
    65    39    43 ar  
    66    40    41 2   
    67    40    42 1   
    68    42    69 1   
    69    42    70 1   
    70    43    44 ar  
    71    43    71 1   
    72    44    45 ar  
    73    44    72 1   
    74    45    73 1   
    75    46    47 1   
    76    46    48 1   
    77    46    49 1   
@<TRIPOS>SUBSTRUCTURE
     1 NBP         1 TEMP              0 ****  ****    0 ROOT
