@<TRIPOS>MOLECULE
NBP
   73    77     1     0     0
SMALL
No Charge or Current Charge


@<TRIPOS>ATOM
      1 PA          22.7030    18.7300    44.3270 p5         1 NBP       1.525800
      2 O1A         22.3500    18.5470    42.8880 o          1 NBP      -0.849500
      3 O2A         24.0540    18.2130    44.6750 o          1 NBP      -0.849500
      4 O5B         21.4920    18.1170    45.1900 os         1 NBP      -0.655400
      5 C5B         21.7140    17.2030    46.2810 c3         1 NBP       0.209600
      6 C4B         21.6700    15.7320    45.7580 c5         1 NBP       0.155300
      7 O4B         22.9670    15.3320    45.2200 os         1 NBP      -0.472000
      8 C3B         21.3470    14.6860    46.8890 c5         1 NBP       0.126300
      9 O3B         20.7330    13.4900    46.3630 oh         1 NBP      -0.825000
     10 C2B         22.8040    14.4610    47.4450 c5         1 NBP       0.189300
     11 O2B         22.9680    13.2280    48.2180 os         1 NBP      -0.579400
     12 C1B         23.5450    14.3230    46.0820 c5         1 NBP       0.276300
     13 N9A         25.0130    14.3600    46.0230 na         1 NBP      -0.219300
     14 C8A         25.8870    15.2750    46.6390 cc         1 NBP       0.399800
     15 Br8         25.3670    16.8400    47.5670 br         1 NBP       0.079700
     16 N7A         27.1770    14.9320    46.4550 nd         1 NBP      -0.601100
     17 C5A         27.0940    13.7640    45.6920 ca         1 NBP      -0.086600
     18 C6A         28.1270    12.9430    45.1900 ca         1 NBP       0.419900
     19 N6A         29.4460    13.1990    45.4010 nv         1 NBP      -1.098900
     20 N1A         27.8540    11.8420    44.4740 nb         1 NBP      -0.337000
     21 C2A         26.5410    11.5800    44.2630 ca         1 NBP       0.134900
     22 N3A         25.4880    12.3100    44.7020 nb         1 NBP      -0.152000
     23 C4A         25.7960    13.4100    45.4220 ca         1 NBP       0.144500
     24 O3          22.5750    20.2640    44.5960 os         1 NBP      -0.759800
     25 PN          22.4650    20.9130    46.0140 p5         1 NBP       1.494800
     26 O1N         23.5900    21.8690    46.2220 o          1 NBP      -0.851000
     27 O2N         22.3150    19.9930    47.1750 o          1 NBP      -0.851000
     28 O5D         21.1010    21.7220    45.7220 os         1 NBP      -0.648400
     29 C5D         19.8520    21.0160    45.5590 c3         1 NBP       0.216600
     30 C4D         19.2470    21.2700    44.1410 c5         1 NBP       0.112300
     31 O4D         18.7670    22.6420    44.0360 os         1 NBP      -0.436000
     32 C3D         20.1510    21.0260    42.8740 c5         1 NBP       0.190300
     33 O3D         20.1190    19.6720    42.3710 oh         1 NBP      -0.751000
     34 C2D         19.4770    21.9930    41.8580 c5         1 NBP       0.098300
     35 O2D         18.2630    21.4280    41.3340 oh         1 NBP      -0.655000
     36 C1D         19.2410    23.2260    42.7940 c5         1 NBP       0.247300
     37 N1N         20.4180    24.0950    43.0300 na         1 NBP       0.017300
     38 C2N         20.8500    24.4700    44.3170 ca         1 NBP       0.049000
     39 C3N         22.0250    25.2220    44.5490 ca         1 NBP      -0.148600
     40 C7N         22.4130    25.5460    45.9710 c          1 NBP       0.645700
     41 O7N         21.6860    25.2960    46.9180 o          1 NBP      -0.565100
     42 N7N         23.5950    26.1630    46.1910 nt         1 NBP      -0.579000
     43 C4N         22.7810    25.6590    43.4410 ca         1 NBP      -0.037000
     44 C5N         22.3330    25.3650    42.1470 ca         1 NBP      -0.146000
     45 C6N         21.1570    24.6190    41.9590 ca         1 NBP      -0.055300
     46 P2B         21.8570    12.7620    49.2860 p5         1 NBP       1.293900
     47 O1X         21.4860    13.9130    50.1490 o          1 NBP      -0.879500
     48 O2X         22.4230    11.6670    50.1190 o          1 NBP      -0.879500
     49 O3X         20.6710    12.2600    48.5380 o          1 NBP      -0.879500
     50 H51A        22.6690    17.3910    46.7850 h1         1 NBP       0.063700
     51 H52A        20.9210    17.3340    47.0280 h1         1 NBP       0.063700
     52 H4B         20.9180    15.6780    44.9600 h1         1 NBP       0.054700
     53 H3B         20.6980    15.1310    47.6580 h1         1 NBP       0.063700
     54 HO3A        20.6480    12.8920    47.1950 ho         1 NBP       0.601000
     55 H2B         23.1440    15.3130    48.0430 h1         1 NBP       0.046700
     56 H1B         23.2740    13.3410    45.6740 h2         1 NBP       0.099700
     57 H61A        30.1080    12.4390    45.2670 hn         1 NBP       0.485500
     58 H62A        29.6760    13.8930    46.1090 hn         1 NBP       0.485500
     59 H2A         26.3080    10.6900    43.6820 h5         1 NBP       0.021100
     60 H51N        19.9710    19.9360    45.7000 h1         1 NBP       0.071700
     61 H52N        19.1270    21.3530    46.3100 h1         1 NBP       0.071700
     62 H4D         18.3610    20.6250    44.0660 h1         1 NBP       0.085700
     63 H3D         21.1800    21.3660    43.0450 h1         1 NBP       0.084700
     64 HO3N        21.0310    19.2480    42.5500 ho         1 NBP       0.619000
     65 H2D         20.1610    22.2300    41.0330 h1         1 NBP       0.048700
     66 HO2N        18.4210    20.4540    41.3730 ho         1 NBP       0.468000
     67 H1D         18.4750    23.8890    42.3760 h2         1 NBP       0.066700
     68 H2N         20.2490    24.1290    45.1620 h4         1 NBP       0.263000
     69 H71N        24.2150    26.3690    45.4250 hn         1 NBP       0.320000
     70 H72N        23.8600    26.3860    47.1380 hn         1 NBP       0.320000
     71 H4N         23.6870    26.2460    43.5630 ha         1 NBP       0.130000
     72 H5N         22.8880    25.7280    41.2840 ha         1 NBP       0.133000
     73 H6N         20.7910    24.4190    40.9510 h4         1 NBP       0.149000
@<TRIPOS>BOND
     1     1     2 1   
     2     1     3 1   
     3     1     4 1   
     4     1    24 1   
     5     4     5 1   
     6     5     6 1   
     7     5    50 1   
     8     5    51 1   
     9     6     7 1   
    10     6     8 1   
    11     6    52 1   
    12     7    12 1   
    13     8     9 1   
    14     8    10 1   
    15     8    53 1   
    16     9    54 1   
    17    10    11 1   
    18    10    12 1   
    19    10    55 1   
    20    11    46 1   
    21    12    13 1   
    22    12    56 1   
    23    13    14 1   
    24    13    23 1   
    25    14    15 1   
    26    14    16 2   
    27    16    17 1   
    28    17    18 ar  
    29    17    23 ar  
    30    18    19 1   
    31    18    20 ar  
    32    19    57 1   
    33    19    58 1   
    34    20    21 ar  
    35    21    22 ar  
    36    21    59 1   
    37    22    23 ar  
    38    24    25 1   
    39    25    26 1   
    40    25    27 1   
    41    25    28 1   
    42    28    29 1   
    43    29    30 1   
    44    29    60 1   
    45    29    61 1   
    46    30    31 1   
    47    30    32 1   
    48    30    62 1   
    49    31    36 1   
    50    32    33 1   
    51    32    34 1   
    52    32    63 1   
    53    33    64 1   
    54    34    35 1   
    55    34    36 1   
    56    34    65 1   
    57    35    66 1   
    58    36    37 1   
    59    36    67 1   
    60    37    38 1   
    61    37    45 2   
    62    38    39 ar  
    63    38    68 1   
    64    39    40 1   
    65    39    43 ar  
    66    40    41 2   
    67    40    42 1   
    68    42    69 1   
    69    42    70 1   
    70    43    44 ar  
    71    43    71 1   
    72    44    45 ar  
    73    44    72 1   
    74    45    73 1   
    75    46    47 1   
    76    46    48 1   
    77    46    49 1   
@<TRIPOS>SUBSTRUCTURE
     1 NBP         1 TEMP              0 ****  ****    0 ROOT
