@<TRIPOS>MOLECULE
NBR
   72    75     1     0     0
SMALL
bcc


@<TRIPOS>ATOM
      1 CAQ        -10.3200     2.9800     1.0780 c3         1 NBR       0.004850
      2 NAP        -10.0550     1.6010     1.4450 nh         1 NBR      -0.213600
      3 CAT        -10.6190     1.0690     2.6740 c3         1 NBR       0.004850
      4 CAM         -9.2970     0.8330     0.6680 cc         1 NBR       0.434400
      5 CAN         -8.6940     1.3270    -0.5200 cc         1 NBR      -0.332350
      6 CAO         -7.9160     0.5140    -1.2820 cd         1 NBR       0.123000
      7 CAL         -9.0430    -0.5300     0.9730 cc         1 NBR      -0.332350
      8 CAK         -8.2570    -1.2800     0.1540 cd         1 NBR       0.123000
      9 NAJ         -7.6960    -0.7760    -0.9600 na         1 NBR      -0.425700
     10 CAA         -6.7740    -1.5860    -1.7750 c3         1 NBR       0.259100
     11 CAU         -5.3420    -1.2750    -1.4500 ca         1 NBR      -0.196800
     12 CAZ         -4.7480    -1.7880    -0.2960 ca         1 NBR      -0.063250
     13 CAY         -3.4460    -1.4720     0.0330 ca         1 NBR      -0.185750
     14 CAV         -4.5880    -0.4470    -2.2670 ca         1 NBR      -0.063250
     15 CAW         -3.2740    -0.1190    -1.9530 ca         1 NBR      -0.185750
     16 CAX         -2.6970    -0.6290    -0.7940 ca         1 NBR       0.178100
     17 OBA         -1.4400    -0.3710    -0.3930 os         1 NBR      -0.304400
     18 CBB         -0.6270     0.4690    -1.1910 c3         1 NBR       0.135900
     19 CBC          0.7030     0.6260    -0.5070 c3         1 NBR       0.135900
     20 OBD          1.3440    -0.6360    -0.4810 os         1 NBR      -0.304400
     21 CBE          2.5580    -0.7380     0.0890 ca         1 NBR       0.178100
     22 CBJ          3.1320    -2.0090     0.1020 ca         1 NBR      -0.185750
     23 CBI          4.3810    -2.2000     0.6640 ca         1 NBR      -0.063250
     24 CBF          3.2540     0.3330     0.6500 ca         1 NBR      -0.185750
     25 CBG          4.5020     0.1210     1.2170 ca         1 NBR      -0.063250
     26 CBH          5.0830    -1.1410     1.2320 ca         1 NBR      -0.196800
     27 CAB          6.4330    -1.3640     1.8510 c3         1 NBR       0.081600
     28 NAC          7.4780    -0.5690     1.1890 na         1 NBR      -0.035600
     29 CAD          8.1480     0.3910     1.8530 ca         1 NBR       0.016700
     30 CAE          9.1080     1.1490     1.2570 ca         1 NBR      -0.245750
     31 CAF          9.4380     0.9440    -0.1080 ca         1 NBR       0.288100
     32 NAI         10.3700     1.6630    -0.7250 nh         1 NBR      -0.595500
     33 CAS         11.0880     2.7010    -0.0060 c3         1 NBR       0.182350
     34 CAR         10.6700     1.4270    -2.1270 c3         1 NBR       0.182350
     35 CAG          8.7090    -0.0780    -0.7750 ca         1 NBR      -0.245750
     36 CAH          7.7610    -0.7900    -0.1100 ca         1 NBR       0.016700
     37 HAQ1        -9.4050     3.5740     1.0650 h1         1 NBR       0.071117
     38 HAQ2       -10.7930     3.0450     0.0970 h1         1 NBR       0.071117
     39 HAQ3       -10.9970     3.4180     1.8040 h1         1 NBR       0.071117
     40 HAT1       -11.3300     0.2660     2.4740 h1         1 NBR       0.071117
     41 HAT2        -9.8390     0.6890     3.3350 h1         1 NBR       0.071117
     42 HAT3       -11.1430     1.8610     3.1970 h1         1 NBR       0.071117
     43 HAN         -8.8280     2.3460    -0.8480 ha         1 NBR       0.181750
     44 HAL         -9.4620    -1.0110     1.8430 ha         1 NBR       0.181750
     45 HAO         -7.4410     0.8730    -2.1830 h4         1 NBR       0.188750
     46 HAK         -8.0590    -2.3210     0.3680 h4         1 NBR       0.188750
     47 HAA1        -7.0120    -2.6320    -1.5850 h1         1 NBR       0.088450
     48 HAA2        -6.9970    -1.3890    -2.8220 h1         1 NBR       0.088450
     49 HAZ         -5.3070    -2.4480     0.3570 ha         1 NBR       0.135000
     50 HAV         -5.0190    -0.0440    -3.1760 ha         1 NBR       0.135000
     51 HAY         -2.9940    -1.8780     0.9290 ha         1 NBR       0.156000
     52 HAW         -2.7270     0.5310    -2.6220 ha         1 NBR       0.156000
     53 HBB1        -0.4940     0.0490    -2.1940 h1         1 NBR       0.056950
     54 HBB2        -1.0730     1.4630    -1.2980 h1         1 NBR       0.056950
     55 HBC1         1.2930     1.3570    -1.0700 h1         1 NBR       0.056950
     56 HBC2         0.5650     1.0160     0.5070 h1         1 NBR       0.056950
     57 HBJ          2.5950    -2.8420    -0.3330 ha         1 NBR       0.156000
     58 HBF          2.8450     1.3340     0.6570 ha         1 NBR       0.156000
     59 HBI          4.8120    -3.1940     0.6640 ha         1 NBR       0.135000
     60 HBG          5.0200     0.9670     1.6530 ha         1 NBR       0.135000
     61 HAB1         6.4420    -1.0830     2.9040 h1         1 NBR       0.088450
     62 HAB2         6.7170    -2.4140     1.7950 h1         1 NBR       0.088450
     63 HAD          7.8860     0.5330     2.8910 h4         1 NBR       0.188750
     64 HAH          7.1940    -1.5670    -0.6030 h4         1 NBR       0.188750
     65 HAE          9.5970     1.8990     1.8590 ha         1 NBR       0.181750
     66 HAG          8.8800    -0.3180    -1.8130 ha         1 NBR       0.181750
     67 HAS1        11.6380     2.2900     0.8410 h1         1 NBR       0.071117
     68 HAS2        11.8010     3.1680    -0.6760 h1         1 NBR       0.071117
     69 HAS3        10.4110     3.4750     0.3590 h1         1 NBR       0.071117
     70 HAR1         9.8050     1.6280    -2.7590 h1         1 NBR       0.071117
     71 HAR2        11.4720     2.0900    -2.4350 h1         1 NBR       0.071117
     72 HAR3        10.9990     0.4010    -2.2960 h1         1 NBR       0.071117
@<TRIPOS>BOND
     1     1     2 1   
     2     1    37 1   
     3     1    38 1   
     4     1    39 1   
     5     2     3 1   
     6     2     4 2   
     7     3    40 1   
     8     3    41 1   
     9     3    42 1   
    10     4     5 1   
    11     4     7 1   
    12     5     6 2   
    13     5    43 1   
    14     6     9 1   
    15     6    45 1   
    16     7     8 2   
    17     7    44 1   
    18     8     9 1   
    19     8    46 1   
    20     9    10 1   
    21    10    11 1   
    22    10    47 1   
    23    10    48 1   
    24    11    12 ar  
    25    11    14 ar  
    26    12    13 ar  
    27    12    49 1   
    28    13    16 ar  
    29    13    51 1   
    30    14    15 ar  
    31    14    50 1   
    32    15    16 ar  
    33    15    52 1   
    34    16    17 1   
    35    17    18 1   
    36    18    19 1   
    37    18    53 1   
    38    18    54 1   
    39    19    20 1   
    40    19    55 1   
    41    19    56 1   
    42    20    21 1   
    43    21    22 ar  
    44    21    24 ar  
    45    22    23 ar  
    46    22    57 1   
    47    23    26 ar  
    48    23    59 1   
    49    24    25 ar  
    50    24    58 1   
    51    25    26 ar  
    52    25    60 1   
    53    26    27 1   
    54    27    28 1   
    55    27    61 1   
    56    27    62 1   
    57    28    29 1   
    58    28    36 2   
    59    29    30 ar  
    60    29    63 1   
    61    30    31 ar  
    62    30    65 1   
    63    31    32 1   
    64    31    35 ar  
    65    32    33 1   
    66    32    34 1   
    67    33    67 1   
    68    33    68 1   
    69    33    69 1   
    70    34    70 1   
    71    34    71 1   
    72    34    72 1   
    73    35    36 ar  
    74    35    66 1   
    75    36    64 1   
@<TRIPOS>SUBSTRUCTURE
     1 NBR         1 TEMP              0 ****  ****    0 ROOT
