@<TRIPOS>MOLECULE
NBR
   72    75     1     0     0
SMALL
No Charge or Current Charge


@<TRIPOS>ATOM
      1 CAQ        -10.9700     2.6250     1.5840 c3         1 NBR       0.034150
      2 NAP        -10.4730     1.2500     1.7980 nh         1 NBR      -0.272200
      3 CAT        -10.9520     0.5700     3.0200 c3         1 NBR       0.034150
      4 CAM         -9.6050     0.6310     0.9010 cc         1 NBR       0.434400
      5 CAN         -8.8000     1.3800     0.0130 cc         1 NBR      -0.382350
      6 CAO         -7.9330     0.7920    -0.8810 cd         1 NBR       0.073000
      7 CAL         -9.4850    -0.7760     0.8370 cc         1 NBR      -0.382350
      8 CAK         -8.6340    -1.4120    -0.0410 cd         1 NBR       0.073000
      9 NAJ         -7.8470    -0.6200    -0.9120 na         1 NBR      -0.425700
     10 CAA         -6.9150    -1.2680    -1.8670 c3         1 NBR       0.259100
     11 CAU         -5.4470    -0.9230    -1.6140 ca         1 NBR      -0.196800
     12 CAZ         -4.9350    -0.8550    -0.3010 ca         1 NBR      -0.045250
     13 CAY         -3.5830    -0.5420    -0.0850 ca         1 NBR      -0.167750
     14 CAV         -4.5840    -0.6840    -2.7020 ca         1 NBR      -0.045250
     15 CAW         -3.2310    -0.3700    -2.4830 ca         1 NBR      -0.167750
     16 CAX         -2.7250    -0.2970    -1.1680 ca         1 NBR       0.178100
     17 OBA         -1.4080     0.0060    -0.8900 os         1 NBR      -0.327600
     18 CBB         -0.4430     0.2670    -1.9300 c3         1 NBR       0.159100
     19 CBC          0.9190     0.5650    -1.2700 c3         1 NBR       0.159100
     20 OBD          1.4270    -0.6560    -0.6950 os         1 NBR      -0.327600
     21 CBE          2.6350    -0.7100    -0.0300 ca         1 NBR       0.178100
     22 CBJ          3.0360    -1.9460     0.4980 ca         1 NBR      -0.167750
     23 CBI          4.2550    -2.0670     1.1860 ca         1 NBR      -0.045250
     24 CBF          3.4660     0.4180     0.1350 ca         1 NBR      -0.167750
     25 CBG          4.6870     0.2990     0.8220 ca         1 NBR      -0.045250
     26 CBH          5.0910    -0.9450     1.3480 ca         1 NBR      -0.196800
     27 CAB          6.4170    -1.0830     2.0970 c3         1 NBR       0.110900
     28 NAC          7.5530    -0.4310     1.4170 na         1 NBR      -0.014200
     29 CAD          8.2020     0.6650     1.9920 ca         1 NBR      -0.016000
     30 CAE          9.2650     1.3030     1.3250 ca         1 NBR      -0.227750
     31 CAF          9.6940     0.8490     0.0640 ca         1 NBR       0.426500
     32 NAI         10.7610     1.4880    -0.6110 nh         1 NBR      -0.733900
     33 CAS         11.8720     2.1340     0.1330 c3         1 NBR       0.182350
     34 CAR         10.8180     1.5430    -2.0940 c3         1 NBR       0.182350
     35 CAG          9.0360    -0.2530    -0.5100 ca         1 NBR      -0.227750
     36 CAH          7.9760    -0.8840     0.1660 ca         1 NBR       0.034700
     37 HAQ1       -10.2240     3.3560     1.9200 h1         1 NBR       0.071117
     38 HAQ2       -11.1820     2.7980     0.5210 h1         1 NBR       0.071117
     39 HAQ3       -11.9000     2.7990     2.1410 h1         1 NBR       0.071117
     40 HAT1       -11.7920    -0.0950     2.7810 h1         1 NBR       0.071117
     41 HAT2       -10.1470    -0.0240     3.4710 h1         1 NBR       0.071117
     42 HAT3       -11.2890     1.2990     3.7680 h1         1 NBR       0.071117
     43 HAN         -8.8540     2.4620     0.0470 ha         1 NBR       0.231750
     44 HAL        -10.0980    -1.3820     1.4940 ha         1 NBR       0.231750
     45 HAO         -7.2960     1.3530    -1.5660 h4         1 NBR       0.238750
     46 HAK         -8.5350    -2.4960    -0.1020 h4         1 NBR       0.238750
     47 HAA1        -7.0340    -2.3580    -1.8200 h1         1 NBR       0.088450
     48 HAA2        -7.1960    -0.9620    -2.8840 h1         1 NBR       0.088450
     49 HAZ         -5.5820    -1.0440     0.5530 ha         1 NBR       0.117000
     50 HAV         -4.9600    -0.7380    -3.7220 ha         1 NBR       0.117000
     51 HAY         -3.1950    -0.4890     0.9290 ha         1 NBR       0.138000
     52 HAW         -2.5940    -0.1890    -3.3440 ha         1 NBR       0.138000
     53 HBB1        -0.3420    -0.5940    -2.6020 h1         1 NBR       0.056950
     54 HBB2        -0.7470     1.1390    -2.5230 h1         1 NBR       0.056950
     55 HBC1         1.6090     0.9420    -2.0370 h1         1 NBR       0.056950
     56 HBC2         0.7920     1.3410    -0.5040 h1         1 NBR       0.056950
     57 HBJ          2.3960    -2.8160     0.3740 ha         1 NBR       0.138000
     58 HBF          3.1850     1.3900    -0.2590 ha         1 NBR       0.138000
     59 HBI          4.5480    -3.0350     1.5890 ha         1 NBR       0.117000
     60 HBG          5.3160     1.1790     0.9450 ha         1 NBR       0.117000
     61 HAB1         6.3020    -0.6570     3.1020 h1         1 NBR       0.088450
     62 HAB2         6.6640    -2.1440     2.2260 h1         1 NBR       0.088450
     63 HAD          7.8540     1.0130     2.9670 h4         1 NBR       0.170750
     64 HAH          7.4550    -1.7410    -0.2650 h4         1 NBR       0.170750
     65 HAE          9.7420     2.1600     1.7880 ha         1 NBR       0.163750
     66 HAG          9.3500    -0.6360    -1.4760 ha         1 NBR       0.163750
     67 HAS1        12.0890     1.5890     1.0610 h1         1 NBR       0.071117
     68 HAS2        12.7940     2.1400    -0.4650 h1         1 NBR       0.071117
     69 HAS3        11.6190     3.1720     0.3860 h1         1 NBR       0.071117
     70 HAR1         9.8080     1.6150    -2.5210 h1         1 NBR       0.071117
     71 HAR2        11.3780     2.4250    -2.4330 h1         1 NBR       0.071117
     72 HAR3        11.3060     0.6470    -2.4980 h1         1 NBR       0.071117
@<TRIPOS>BOND
     1     1     2 1   
     2     1    37 1   
     3     1    38 1   
     4     1    39 1   
     5     2     3 1   
     6     2     4 2   
     7     3    40 1   
     8     3    41 1   
     9     3    42 1   
    10     4     5 1   
    11     4     7 1   
    12     5     6 2   
    13     5    43 1   
    14     6     9 1   
    15     6    45 1   
    16     7     8 2   
    17     7    44 1   
    18     8     9 1   
    19     8    46 1   
    20     9    10 1   
    21    10    11 1   
    22    10    47 1   
    23    10    48 1   
    24    11    12 ar  
    25    11    14 ar  
    26    12    13 ar  
    27    12    49 1   
    28    13    16 ar  
    29    13    51 1   
    30    14    15 ar  
    31    14    50 1   
    32    15    16 ar  
    33    15    52 1   
    34    16    17 1   
    35    17    18 1   
    36    18    19 1   
    37    18    53 1   
    38    18    54 1   
    39    19    20 1   
    40    19    55 1   
    41    19    56 1   
    42    20    21 1   
    43    21    22 ar  
    44    21    24 ar  
    45    22    23 ar  
    46    22    57 1   
    47    23    26 ar  
    48    23    59 1   
    49    24    25 ar  
    50    24    58 1   
    51    25    26 ar  
    52    25    60 1   
    53    26    27 1   
    54    27    28 1   
    55    27    61 1   
    56    27    62 1   
    57    28    29 1   
    58    28    36 2   
    59    29    30 ar  
    60    29    63 1   
    61    30    31 ar  
    62    30    65 1   
    63    31    32 1   
    64    31    35 ar  
    65    32    33 1   
    66    32    34 1   
    67    33    67 1   
    68    33    68 1   
    69    33    69 1   
    70    34    70 1   
    71    34    71 1   
    72    34    72 1   
    73    35    36 ar  
    74    35    66 1   
    75    36    64 1   
@<TRIPOS>SUBSTRUCTURE
     1 NBR         1 TEMP              0 ****  ****    0 ROOT
