@<TRIPOS>MOLECULE
NBT
   16    15     1     0     0
SMALL
abcg2


@<TRIPOS>ATOM
      1 C1           0.1970    -2.0610    -0.1610 c3         1 NBT      -0.104100
      2 C2          -0.2430    -0.6410    -0.4660 c3         1 NBT      -0.025700
      3 C3          -1.5250    -0.2460     0.2610 c3         1 NBT      -0.085400
      4 C4          -1.9880     1.1790    -0.0070 c3         1 NBT      -0.100100
      5 NCG          0.8490     0.3160    -0.0800 no         1 NBT       0.578000
      6 H1C1         0.3130    -2.2270     0.9080 hc         1 NBT       0.060367
      7 H1C2        -0.5720    -2.7400    -0.5280 hc         1 NBT       0.060367
      8 H1C3         1.1300    -2.3130    -0.6640 hc         1 NBT       0.060367
      9 H2          -0.3680    -0.5030    -1.5400 h1         1 NBT       0.093700
     10 H3C1        -1.4050    -0.4190     1.3320 hc         1 NBT       0.063200
     11 H3C2        -2.2870    -0.9490    -0.0820 hc         1 NBT       0.063200
     12 H4C1        -2.0630     1.3810    -1.0760 hc         1 NBT       0.046367
     13 H4C2        -2.9730     1.3420     0.4290 hc         1 NBT       0.046367
     14 H4C3        -1.3200     1.9220     0.4310 hc         1 NBT       0.046367
     15 O15          1.2400     0.2890     1.0620 o          1 NBT      -0.401500
     16 O16          1.2670     1.0750    -0.9210 o          1 NBT      -0.401500
@<TRIPOS>BOND
     1     1     2 1   
     2     1     6 1   
     3     1     7 1   
     4     1     8 1   
     5     2     3 1   
     6     2     5 1   
     7     2     9 1   
     8     3     4 1   
     9     3    10 1   
    10     3    11 1   
    11     4    12 1   
    12     4    13 1   
    13     4    14 1   
    14     5    15 1   
    15     5    16 1   
@<TRIPOS>SUBSTRUCTURE
     1 NBT         1 TEMP              0 ****  ****    0 ROOT
