@<TRIPOS>MOLECULE
NBT
   16    15     1     0     0
SMALL
No Charge or Current Charge


@<TRIPOS>ATOM
      1 C1           0.1890    -2.0900    -0.2030 c3         1 NBT      -0.104100
      2 C2          -0.2200    -0.6140    -0.4320 c3         1 NBT      -0.025700
      3 C3          -1.5490    -0.2430     0.2840 c3         1 NBT      -0.085400
      4 C4          -2.0540     1.1830    -0.0270 c3         1 NBT      -0.100100
      5 NCG          0.9320     0.3370    -0.0330 no         1 NBT       0.578000
      6 H1C1         0.3470    -2.2940     0.8630 hc         1 NBT       0.060367
      7 H1C2        -0.5910    -2.7690    -0.5700 hc         1 NBT       0.060367
      8 H1C3         1.1180    -2.3220    -0.7390 hc         1 NBT       0.060367
      9 H2          -0.3500    -0.4570    -1.5110 h1         1 NBT       0.093700
     10 H3C1        -1.4280    -0.3540     1.3690 hc         1 NBT       0.063200
     11 H3C2        -2.3250    -0.9580    -0.0180 hc         1 NBT       0.063200
     12 H4C1        -2.1890     1.3210    -1.1060 hc         1 NBT       0.046367
     13 H4C2        -3.0190     1.3590     0.4630 hc         1 NBT       0.046367
     14 H4C3        -1.3490     1.9410     0.3350 hc         1 NBT       0.046367
     15 O15          1.2780     0.3640     1.1550 o          1 NBT      -0.401500
     16 O16          1.4620     1.0010    -0.9310 o          1 NBT      -0.401500
@<TRIPOS>BOND
     1     1     2 1   
     2     1     6 1   
     3     1     7 1   
     4     1     8 1   
     5     2     3 1   
     6     2     5 1   
     7     2     9 1   
     8     3     4 1   
     9     3    10 1   
    10     3    11 1   
    11     4    12 1   
    12     4    13 1   
    13     4    14 1   
    14     5    15 1   
    15     5    16 1   
@<TRIPOS>SUBSTRUCTURE
     1 NBT         1 TEMP              0 ****  ****    0 ROOT
