@<TRIPOS>MOLECULE
NBU
   14    13     1     0     0
SMALL
No Charge or Current Charge


@<TRIPOS>ATOM
      1 C1          -0.1280     0.0320     1.9660 c3         1 NBU      -0.089100
      2 C2           0.5320     0.0260     0.5730 c3         1 NBU      -0.076400
      3 C3          -0.4930     0.0480    -0.5820 c3         1 NBU      -0.076400
      4 C4           0.1660     0.0420    -1.9740 c3         1 NBU      -0.089100
      5 H11         -0.7700    -0.8470     2.0950 hc         1 NBU       0.030867
      6 H12          0.6370     0.0160     2.7510 hc         1 NBU       0.030867
      7 H13         -0.7400     0.9320     2.1020 hc         1 NBU       0.030867
      8 H21          1.1940     0.8970     0.4890 hc         1 NBU       0.036450
      9 H22          1.1640    -0.8660     0.4820 hc         1 NBU       0.036450
     10 H31         -1.1550    -0.8230    -0.4970 hc         1 NBU       0.036450
     11 H32         -1.1250     0.9400    -0.4900 hc         1 NBU       0.036450
     12 H41         -0.5990     0.0580    -2.7590 hc         1 NBU       0.030867
     13 H42          0.8090     0.9220    -2.1030 hc         1 NBU       0.030867
     14 H43          0.7790    -0.8570    -2.1100 hc         1 NBU       0.030867
@<TRIPOS>BOND
     1     1     2 1   
     2     1     5 1   
     3     1     6 1   
     4     1     7 1   
     5     2     3 1   
     6     2     8 1   
     7     2     9 1   
     8     3     4 1   
     9     3    10 1   
    10     3    11 1   
    11     4    12 1   
    12     4    13 1   
    13     4    14 1   
@<TRIPOS>SUBSTRUCTURE
     1 NBU         1 TEMP              0 ****  ****    0 ROOT
