@<TRIPOS>MOLECULE
NBU
   14    13     1     0     0
SMALL
abcg2


@<TRIPOS>ATOM
      1 C1          -0.1220     0.0320     1.9410 c3         1 NBU      -0.089100
      2 C2           0.5270     0.0270     0.5640 c3         1 NBU      -0.076400
      3 C3          -0.4890     0.0470    -0.5720 c3         1 NBU      -0.076400
      4 C4           0.1610     0.0420    -1.9490 c3         1 NBU      -0.089100
      5 H11         -0.7700    -0.8360     2.0730 hc         1 NBU       0.030867
      6 H12          0.6220     0.0130     2.7370 hc         1 NBU       0.030867
      7 H13         -0.7370     0.9240     2.0830 hc         1 NBU       0.030867
      8 H21          1.1930     0.8910     0.4670 hc         1 NBU       0.036450
      9 H22          1.1650    -0.8570     0.4620 hc         1 NBU       0.036450
     10 H31         -1.1530    -0.8170    -0.4750 hc         1 NBU       0.036450
     11 H32         -1.1270     0.9310    -0.4700 hc         1 NBU       0.036450
     12 H41         -0.5840     0.0600    -2.7460 hc         1 NBU       0.030867
     13 H42          0.8090     0.9110    -2.0810 hc         1 NBU       0.030867
     14 H43          0.7760    -0.8490    -2.0910 hc         1 NBU       0.030867
@<TRIPOS>BOND
     1     1     2 1   
     2     1     5 1   
     3     1     6 1   
     4     1     7 1   
     5     2     3 1   
     6     2     8 1   
     7     2     9 1   
     8     3     4 1   
     9     3    10 1   
    10     3    11 1   
    11     4    12 1   
    12     4    13 1   
    13     4    14 1   
@<TRIPOS>SUBSTRUCTURE
     1 NBU         1 TEMP              0 ****  ****    0 ROOT
