@<TRIPOS>MOLECULE
NBV
   36    36     1     0     0
SMALL
abcg2


@<TRIPOS>ATOM
      1 O9           0.1170     2.6850     1.0070 oh         1 NBV      -0.647000
      2 C12         -0.1830     2.4610    -0.3510 c3         1 NBV       0.165600
      3 C11         -0.5650     1.0030    -0.5640 c6         1 NBV       0.195500
      4 C10         -1.8850     0.6810     0.1510 c6         1 NBV       0.178300
      5 O1          -2.8670     1.5850    -0.3010 oh         1 NBV      -0.728000
      6 C9          -2.3180    -0.7520    -0.1210 c6         1 NBV       0.138300
      7 O8          -3.5010    -0.9790     0.6130 oh         1 NBV      -0.670000
      8 C8          -1.2060    -1.7090     0.2520 c6         1 NBV       0.133300
      9 O7          -1.6180    -3.0090    -0.1100 oh         1 NBV      -0.728000
     10 N1           0.4520     0.0550    -0.1100 n3         1 NBV      -0.715600
     11 C7           0.0680    -1.2960    -0.4720 c6         1 NBV       0.131800
     12 C13          1.8070     0.3660    -0.5440 c3         1 NBV       0.178800
     13 C14          2.8840    -0.4360     0.1760 c3         1 NBV      -0.079400
     14 C15          4.2850     0.0040    -0.2350 c3         1 NBV      -0.076400
     15 C16          5.3770    -0.7730     0.4860 c3         1 NBV      -0.088100
     16 H9           0.2050     3.6320     1.1400 ho         1 NBV       0.438000
     17 H121        -1.0230     3.0760    -0.6890 h1         1 NBV       0.028200
     18 H122         0.6590     2.7230    -1.0020 h1         1 NBV       0.028200
     19 H11         -0.7370     0.8980    -1.6530 h1         1 NBV       0.033700
     20 H10         -1.7170     0.7920     1.2320 h1         1 NBV       0.072700
     21 H1          -3.6960     1.3570     0.1310 ho         1 NBV       0.524000
     22 HA          -2.5040    -0.8520    -1.2030 h1         1 NBV       0.047700
     23 H8          -3.8640    -1.8310     0.3520 ho         1 NBV       0.462000
     24 HB          -1.0260    -1.6380     1.3340 h1         1 NBV       0.060700
     25 H7          -1.0020    -3.6420     0.2710 ho         1 NBV       0.509000
     26 H7C1         0.8590    -1.9940    -0.1950 h1         1 NBV       0.039200
     27 H7C2        -0.0830    -1.4040    -1.5620 h1         1 NBV       0.039200
     28 H131         1.9230     0.2430    -1.6350 h1         1 NBV       0.033200
     29 H132         2.0100     1.4140    -0.3310 h1         1 NBV       0.033200
     30 H141         2.7580    -0.3070     1.2560 hc         1 NBV       0.046200
     31 H142         2.7880    -1.5060    -0.0230 hc         1 NBV       0.046200
     32 H151         4.3990    -0.1200    -1.3160 hc         1 NBV       0.036700
     33 H152         4.4040     1.0740    -0.0380 hc         1 NBV       0.036700
     34 H161         5.2980    -1.8430     0.2820 hc         1 NBV       0.032367
     35 H162         6.3710    -0.4500     0.1760 hc         1 NBV       0.032367
     36 H163         5.3070    -0.6400     1.5670 hc         1 NBV       0.032367
@<TRIPOS>BOND
     1     1     2 1   
     2     1    16 1   
     3     2     3 1   
     4     2    17 1   
     5     2    18 1   
     6     3     4 1   
     7     3    10 1   
     8     3    19 1   
     9     4     5 1   
    10     4     6 1   
    11     4    20 1   
    12     5    21 1   
    13     6     7 1   
    14     6     8 1   
    15     6    22 1   
    16     7    23 1   
    17     8     9 1   
    18     8    11 1   
    19     8    24 1   
    20     9    25 1   
    21    10    11 1   
    22    10    12 1   
    23    11    26 1   
    24    11    27 1   
    25    12    13 1   
    26    12    28 1   
    27    12    29 1   
    28    13    14 1   
    29    13    30 1   
    30    13    31 1   
    31    14    15 1   
    32    14    32 1   
    33    14    33 1   
    34    15    34 1   
    35    15    35 1   
    36    15    36 1   
@<TRIPOS>SUBSTRUCTURE
     1 NBV         1 TEMP              0 ****  ****    0 ROOT
