@<TRIPOS>MOLECULE
NBV
   36    36     1     0     0
SMALL
No Charge or Current Charge


@<TRIPOS>ATOM
      1 O9          -0.0330     2.8830     1.1900 oh         1 NBV      -0.647000
      2 C12         -0.2300     2.5860    -0.2080 c3         1 NBV       0.165600
      3 C11         -0.5730     1.0730    -0.5000 c6         1 NBV       0.195500
      4 C10         -2.0090     0.7450     0.0540 c6         1 NBV       0.178300
      5 O1          -3.0350     1.5920    -0.5100 oh         1 NBV      -0.728000
      6 C9          -2.3880    -0.7290    -0.2460 c6         1 NBV       0.138300
      7 O8          -3.6950    -1.0390     0.2740 oh         1 NBV      -0.670000
      8 C8          -1.3290    -1.6780     0.3600 c6         1 NBV       0.133300
      9 O7          -1.6960    -3.0530     0.1060 oh         1 NBV      -0.728000
     10 N1           0.4710     0.0840     0.0010 n3         1 NBV      -0.715600
     11 C7           0.0600    -1.3350    -0.2500 c6         1 NBV       0.131800
     12 C13          1.8470     0.3790    -0.4990 c3         1 NBV       0.178800
     13 C14          2.9740    -0.4970     0.1000 c3         1 NBV      -0.079400
     14 C15          4.3860     0.0010    -0.2820 c3         1 NBV      -0.076400
     15 C16          5.5130    -0.8700     0.3070 c3         1 NBV      -0.088100
     16 H9           0.2000     3.8360     1.2500 ho         1 NBV       0.438000
     17 H121        -1.0380     3.2120    -0.6090 h1         1 NBV       0.028200
     18 H122         0.6660     2.8600    -0.7790 h1         1 NBV       0.028200
     19 H11         -0.6270     0.9820    -1.5950 h1         1 NBV       0.033700
     20 H10         -1.9820     0.8710     1.1470 h1         1 NBV       0.072700
     21 H1          -3.8690     1.0820    -0.3640 ho         1 NBV       0.524000
     22 HA          -2.3840    -0.8700    -1.3380 h1         1 NBV       0.047700
     23 H8          -3.6990    -2.0220     0.3460 ho         1 NBV       0.462000
     24 HB          -1.2770    -1.4970     1.4450 h1         1 NBV       0.060700
     25 H7          -1.0320    -3.6200     0.5660 ho         1 NBV       0.509000
     26 H7C1         0.7880    -2.0290     0.1920 h1         1 NBV       0.039200
     27 H7C2         0.0380    -1.5360    -1.3320 h1         1 NBV       0.039200
     28 H131         1.8750     0.2860    -1.5940 h1         1 NBV       0.033200
     29 H132         2.1110     1.4150    -0.2590 h1         1 NBV       0.033200
     30 H141         2.8780    -0.5040     1.1930 hc         1 NBV       0.046200
     31 H142         2.8670    -1.5310    -0.2460 hc         1 NBV       0.046200
     32 H151         4.4820     0.0180    -1.3750 hc         1 NBV       0.036700
     33 H152         4.5160     1.0330     0.0670 hc         1 NBV       0.036700
     34 H161         5.4340    -1.9030    -0.0520 hc         1 NBV       0.032367
     35 H162         6.4940    -0.4780     0.0110 hc         1 NBV       0.032367
     36 H163         5.4650    -0.8790     1.4030 hc         1 NBV       0.032367
@<TRIPOS>BOND
     1     1     2 1   
     2     1    16 1   
     3     2     3 1   
     4     2    17 1   
     5     2    18 1   
     6     3     4 1   
     7     3    10 1   
     8     3    19 1   
     9     4     5 1   
    10     4     6 1   
    11     4    20 1   
    12     5    21 1   
    13     6     7 1   
    14     6     8 1   
    15     6    22 1   
    16     7    23 1   
    17     8     9 1   
    18     8    11 1   
    19     8    24 1   
    20     9    25 1   
    21    10    11 1   
    22    10    12 1   
    23    11    26 1   
    24    11    27 1   
    25    12    13 1   
    26    12    28 1   
    27    12    29 1   
    28    13    14 1   
    29    13    30 1   
    30    13    31 1   
    31    14    15 1   
    32    14    32 1   
    33    14    33 1   
    34    15    34 1   
    35    15    35 1   
    36    15    36 1   
@<TRIPOS>SUBSTRUCTURE
     1 NBV         1 TEMP              0 ****  ****    0 ROOT
