@<TRIPOS>MOLECULE
NBW
   63    67     1     0     0
SMALL
abcg2


@<TRIPOS>ATOM
      1 C1        -114.8480    16.0860   -27.0110 ca         1 NBW      -0.099000
      2 C2        -115.9130    16.0440   -26.1580 ca         1 NBW      -0.077000
      3 C3        -108.2110    15.7610   -25.9300 cc         1 NBW       0.247900
      4 C7        -108.8620    16.1410   -27.1180 cc         1 NBW       0.181000
      5 C8        -115.6850    15.9310   -24.7680 ca         1 NBW       0.266500
      6 C9        -112.0950    15.8950   -24.5700 ca         1 NBW       0.433300
      7 C10       -111.2890    16.0400   -26.6840 ca         1 NBW       0.439900
      8 C11       -116.8610    15.9710   -23.8360 c          1 NBW       0.518600
      9 C12       -110.6890    14.6770   -21.5460 cx         1 NBW      -0.128900
     10 C13       -110.0330    14.3120   -22.8500 cx         1 NBW      -0.128900
     11 C14       -104.9060    15.9250   -28.8580 c6         1 NBW      -0.090900
     12 C15       -105.2410    18.2630   -28.0440 c6         1 NBW      -0.090900
     13 C16       -103.5040    16.3320   -29.2830 c6         1 NBW       0.165800
     14 C19       -110.6870    15.6410   -22.6810 cx         1 NBW       0.126000
     15 C20       -109.8910    16.9130   -22.5970 c3         1 NBW      -0.079100
     16 C22       -117.8570    15.3820   -21.7220 c3         1 NBW       0.093800
     17 N25       -114.4830    15.8920   -24.2520 nb         1 NBW      -0.585000
     18 N26       -112.4620    16.0900   -27.2830 nb         1 NBW      -0.283000
     19 N29       -103.4470    17.7380   -29.6330 n3         1 NBW      -0.718600
     20 C4        -107.8460    16.5790   -27.9430 cd         1 NBW      -0.222000
     21 C5        -113.5380    16.0430   -26.4800 ca         1 NBW       0.071000
     22 C6        -113.4350    15.9490   -25.0790 ca         1 NBW       0.102000
     23 C17       -103.8290    18.5760   -28.5120 c6         1 NBW       0.165800
     24 C18       -105.3600    16.7870   -27.6850 c6         1 NBW       0.094300
     25 C23       -115.9260    14.1010   -22.4970 c3         1 NBW       0.093800
     26 N24       -106.9070    15.9590   -26.0310 nd         1 NBW      -0.522800
     27 N27       -111.0640    15.9350   -25.3550 nb         1 NBW      -0.319000
     28 N28       -106.7010    16.4450   -27.2440 na         1 NBW       0.144800
     29 N30       -110.2030    16.0960   -27.4850 nu         1 NBW      -0.892900
     30 N31       -116.8260    15.2160   -22.7270 n          1 NBW      -0.389800
     31 O32       -117.7910    16.7220   -24.1110 o          1 NBW      -0.604100
     32 O33       -111.9710    15.7940   -23.2650 os         1 NBW      -0.400300
     33 H1        -114.9840    16.1560   -28.0830 ha         1 NBW       0.140000
     34 H2        -116.9240    16.0860   -26.5380 ha         1 NBW       0.143000
     35 H4        -111.6220    14.1850   -21.2980 hc         1 NBW       0.083700
     36 H5        -110.0620    14.9050   -20.6930 hc         1 NBW       0.083700
     37 H6        -110.5220    13.5710   -23.4690 hc         1 NBW       0.083700
     38 H7        -108.9510    14.2850   -22.8950 hc         1 NBW       0.083700
     39 H8        -105.5920    16.0480   -29.7010 hc         1 NBW       0.060200
     40 H9        -104.9150    14.8700   -28.5770 hc         1 NBW       0.060200
     41 H10       -105.4910    18.8830   -27.1810 hc         1 NBW       0.060200
     42 H11       -105.9480    18.5120   -28.8410 hc         1 NBW       0.060200
     43 H12       -103.2000    15.7420   -30.1510 h1         1 NBW       0.036700
     44 H13       -102.7930    16.0870   -28.4730 h1         1 NBW       0.036700
     45 H14       -108.9630    16.7310   -22.0560 hc         1 NBW       0.054033
     46 H15       -109.6300    17.2950   -23.5830 hc         1 NBW       0.054033
     47 H16       -110.4450    17.6830   -22.0570 hc         1 NBW       0.054033
     48 H17       -102.1430    19.1470   -30.4580 h1         1 NBW       0.033033
     49 H18       -101.3400    17.9800   -29.3960 h1         1 NBW       0.033033
     50 H19       -101.8900    17.4900   -31.0050 h1         1 NBW       0.033033
     51 H20       -117.4130    15.2590   -20.7340 h1         1 NBW       0.042200
     52 H21       -118.2990    16.3720   -21.7780 h1         1 NBW       0.042200
     53 H22       -118.6480    14.6380   -21.8350 h1         1 NBW       0.042200
     54 H24       -107.8760    16.9570   -28.9520 h4         1 NBW       0.159000
     55 H25       -103.1290    18.4600   -27.6640 h1         1 NBW       0.036700
     56 H26       -103.7740    19.6220   -28.8190 h1         1 NBW       0.036700
     57 H27       -104.7190    16.5770   -26.8250 h1         1 NBW       0.085700
     58 H28       -116.4970    13.2840   -22.0550 h1         1 NBW       0.042200
     59 H29       -115.4900    13.7340   -23.4200 h1         1 NBW       0.042200
     60 H30       -115.1180    14.3640   -21.8130 h1         1 NBW       0.042200
     61 H31       -110.4070    16.2070   -28.4660 hn         1 NBW       0.515000
     62 H3        -108.6410    15.3660   -25.0260 h4         1 NBW       0.058100
     63 C21       -102.1430    18.1040   -30.1390 c3         1 NBW       0.152100
@<TRIPOS>BOND
     1     1     2 ar  
     2     1    21 ar  
     3     1    33 1   
     4     2     5 ar  
     5     2    34 1   
     6     3     4 1   
     7     3    26 2   
     8     3    62 1   
     9     4    20 2   
    10     4    29 1   
    11     5     8 1   
    12     5    17 ar  
    13     6    22 ar  
    14     6    27 ar  
    15     6    32 1   
    16     7    18 ar  
    17     7    27 ar  
    18     7    29 1   
    19     8    30 1   
    20     8    31 2   
    21     9    10 1   
    22     9    14 1   
    23     9    35 1   
    24     9    36 1   
    25    10    14 1   
    26    10    37 1   
    27    10    38 1   
    28    11    13 1   
    29    11    24 1   
    30    11    39 1   
    31    11    40 1   
    32    12    23 1   
    33    12    24 1   
    34    12    41 1   
    35    12    42 1   
    36    13    19 1   
    37    13    43 1   
    38    13    44 1   
    39    14    15 1   
    40    14    32 1   
    41    15    45 1   
    42    15    46 1   
    43    15    47 1   
    44    16    30 1   
    45    16    51 1   
    46    16    52 1   
    47    16    53 1   
    48    17    22 ar  
    49    18    21 ar  
    50    19    23 1   
    51    19    63 1   
    52    20    28 1   
    53    20    54 1   
    54    21    22 ar  
    55    23    55 1   
    56    23    56 1   
    57    24    28 1   
    58    24    57 1   
    59    25    30 1   
    60    25    58 1   
    61    25    59 1   
    62    25    60 1   
    63    26    28 1   
    64    29    61 1   
    65    48    63 1   
    66    49    63 1   
    67    50    63 1   
@<TRIPOS>SUBSTRUCTURE
     1 NBW         1 TEMP              0 ****  ****    0 ROOT
