@<TRIPOS>MOLECULE
NBW
   63    67     1     0     0
SMALL
No Charge or Current Charge


@<TRIPOS>ATOM
      1 C1         114.6440    15.6320   -27.0410 ca         1 NBW      -0.099000
      2 C2        -115.7930    15.5700   -26.2370 ca         1 NBW      -0.077000
      3 C3         107.9700    15.8870   -25.9430 cc         1 NBW       0.247900
      4 C7        -108.6390    16.2450   -27.1400 cc         1 NBW       0.181000
      5 C8         115.6830    15.7080   -24.8360 ca         1 NBW       0.266500
      6 C9        -112.0450    16.2040   -24.4670 ca         1 NBW       0.433300
      7 C10        111.1150    16.1010   -26.5560 ca         1 NBW       0.439900
      8 C11       -116.9720    15.6720   -23.9880 c          1 NBW       0.518600
      9 C12        111.5650    14.5260   -21.4950 cx         1 NBW      -0.128900
     10 C13       -111.0800    14.0050   -22.8260 cx         1 NBW      -0.128900
     11 C14        104.7450    16.0550   -29.0030 c6         1 NBW      -0.090900
     12 C15       -105.0450    18.4220   -28.1360 c6         1 NBW      -0.090900
     13 C16        103.3540    16.4650   -29.5370 c6         1 NBW       0.165800
     14 C19       -110.9990    15.4860   -22.5150 cx         1 NBW       0.126000
     15 C20        109.6860    16.2060   -22.2230 c3         1 NBW      -0.079100
     16 C22       -118.1430    15.5500   -21.7670 c3         1 NBW       0.093800
     17 N25        114.4660    15.9340   -24.2590 nb         1 NBW      -0.585000
     18 N26       -112.2760    15.9000   -27.1920 nb         1 NBW      -0.283000
     19 N29        103.3090    17.9150   -29.8700 n3         1 NBW      -0.718600
     20 C4        -107.6760    16.6740   -27.9920 cd         1 NBW      -0.222000
     21 C5         113.3930    15.8420   -26.4390 ca         1 NBW       0.071000
     22 C6        -113.3400    15.9930   -25.0270 ca         1 NBW       0.102000
     23 C17        103.6460    18.7650   -28.6950 c6         1 NBW       0.165800
     24 C18       -105.1350    16.9180   -27.7780 c6         1 NBW       0.094300
     25 C23        115.7910    14.6830   -21.9620 c3         1 NBW       0.093800
     26 N24       -106.6630    16.0640   -25.9820 nd         1 NBW      -0.522800
     27 N27        110.9390    16.2670   -25.2420 nb         1 NBW      -0.319000
     28 N28       -106.4810    16.5600   -27.2670 na         1 NBW       0.144800
     29 N30        110.0030    16.1610   -27.3770 nu         1 NBW      -0.892900
     30 N31       -116.9160    15.4180   -22.5860 n          1 NBW      -0.389800
     31 O32        118.0630    15.9060   -24.5060 o          1 NBW      -0.604100
     32 O33       -111.9330    16.3870   -23.0920 os         1 NBW      -0.400300
     33 H1         114.7230    15.5180   -28.1200 ha         1 NBW       0.140000
     34 H2        -116.7650    15.4090   -26.6960 ha         1 NBW       0.143000
     35 H4         112.6370    14.5490   -21.3200 hc         1 NBW       0.083700
     36 H5        -110.9650    14.3050   -20.6160 hc         1 NBW       0.083700
     37 H6         111.8330    13.6540   -23.5280 hc         1 NBW       0.083700
     38 H7        -110.1510    13.4400   -22.8420 hc         1 NBW       0.083700
     39 H8         105.4880    16.1700   -29.8040 hc         1 NBW       0.060200
     40 H9        -104.7380    14.9910   -28.7290 hc         1 NBW       0.060200
     41 H10        105.2500    19.0340   -27.2480 hc         1 NBW       0.060200
     42 H11       -105.8070    18.6830   -28.8840 hc         1 NBW       0.060200
     43 H12        103.1280    15.8620   -30.4290 h1         1 NBW       0.036700
     44 H13       -102.5920    16.2230   -28.7810 h1         1 NBW       0.036700
     45 H14        108.9350    15.5130   -21.8260 hc         1 NBW       0.054033
     46 H15       -109.2660    16.6700   -23.1220 hc         1 NBW       0.054033
     47 H16        109.8360    16.9950   -21.4770 hc         1 NBW       0.054033
     48 H17       -102.0460    19.3650   -30.7900 h1         1 NBW       0.033033
     49 H18        101.1890    18.1590   -29.8000 h1         1 NBW       0.033033
     50 H19       -101.8360    17.7090   -31.3970 h1         1 NBW       0.033033
     51 H20        117.8900    15.5530   -20.6990 h1         1 NBW       0.042200
     52 H21       -118.6540    16.4920   -22.0040 h1         1 NBW       0.042200
     53 H22        118.8190    14.7110   -21.9740 h1         1 NBW       0.042200
     54 H24       -107.7310    17.0400   -29.0090 h4         1 NBW       0.159000
     55 H25        102.8970    18.6300   -27.8990 h1         1 NBW       0.036700
     56 H26       -103.6300    19.8280   -28.9760 h1         1 NBW       0.036700
     57 H27        104.4100    16.7160   -26.9760 h1         1 NBW       0.085700
     58 H28       -116.1340    14.1450   -21.0690 h1         1 NBW       0.042200
     59 H29        115.3790    13.9490   -22.6660 h1         1 NBW       0.042200
     60 H30       -115.0060    15.3900   -21.6640 h1         1 NBW       0.042200
     61 H31        110.2530    16.2210   -28.3650 hn         1 NBW       0.515000
     62 H3        -108.4070    15.4840   -25.0400 h4         1 NBW       0.058100
     63 C21        102.0270    18.3070   -30.4950 c3         1 NBW       0.152100
@<TRIPOS>BOND
     1     1     2 ar  
     2     1    21 ar  
     3     1    33 1   
     4     2     5 ar  
     5     2    34 1   
     6     3     4 1   
     7     3    26 2   
     8     3    62 1   
     9     4    20 2   
    10     4    29 1   
    11     5     8 1   
    12     5    17 ar  
    13     6    22 ar  
    14     6    27 ar  
    15     6    32 1   
    16     7    18 ar  
    17     7    27 ar  
    18     7    29 1   
    19     8    30 1   
    20     8    31 2   
    21     9    10 1   
    22     9    14 1   
    23     9    35 1   
    24     9    36 1   
    25    10    14 1   
    26    10    37 1   
    27    10    38 1   
    28    11    13 1   
    29    11    24 1   
    30    11    39 1   
    31    11    40 1   
    32    12    23 1   
    33    12    24 1   
    34    12    41 1   
    35    12    42 1   
    36    13    19 1   
    37    13    43 1   
    38    13    44 1   
    39    14    15 1   
    40    14    32 1   
    41    15    45 1   
    42    15    46 1   
    43    15    47 1   
    44    16    30 1   
    45    16    51 1   
    46    16    52 1   
    47    16    53 1   
    48    17    22 ar  
    49    18    21 ar  
    50    19    23 1   
    51    19    63 1   
    52    20    28 1   
    53    20    54 1   
    54    21    22 ar  
    55    23    55 1   
    56    23    56 1   
    57    24    28 1   
    58    24    57 1   
    59    25    30 1   
    60    25    58 1   
    61    25    59 1   
    62    25    60 1   
    63    26    28 1   
    64    29    61 1   
    65    48    63 1   
    66    49    63 1   
    67    50    63 1   
@<TRIPOS>SUBSTRUCTURE
     1 NBW         1 TEMP              0 ****  ****    0 ROOT
