@<TRIPOS>MOLECULE
NBX
   43    44     1     0     0
SMALL
bcc


@<TRIPOS>ATOM
      1 O5           2.5820     0.8830    -0.3770 os         1 NBX      -0.414600
      2 C1           2.0020    -0.2470     0.2330 c6         1 NBX       0.287500
      3 C2           2.6440    -1.5250    -0.3130 c6         1 NBX       0.076100
      4 O2           2.1630    -2.6660     0.3490 oh         1 NBX      -0.592800
      5 C3           4.1480    -1.4620    -0.0880 c6         1 NBX       0.116100
      6 O3           4.8190    -2.5340    -0.7060 oh         1 NBX      -0.604800
      7 C4           4.7250    -0.1710    -0.6590 c6         1 NBX       0.119100
      8 O4           6.0810    -0.0250    -0.3200 oh         1 NBX      -0.592800
      9 C5           3.9590     1.0270    -0.0970 c6         1 NBX       0.156100
     10 C6           4.4220     2.3320    -0.7090 c3         1 NBX       0.149400
     11 O6           3.7450     3.3930    -0.0800 oh         1 NBX      -0.581800
     12 N1           0.6040    -0.2480    -0.0330 ns         1 NBX      -0.592900
     13 C7          -0.3050     0.3050     0.8200 c          1 NBX       0.802100
     14 O7          -0.0160     0.7870     1.8920 o          1 NBX      -0.551100
     15 N2          -1.6020     0.2090     0.3310 ns         1 NBX      -0.628500
     16 C8          -2.7360     0.7520     0.9070 c          1 NBX       0.708700
     17 O8          -2.6880     1.5580     1.8140 o          1 NBX      -0.527100
     18 C9          -4.0160     0.3000     0.3230 ca         1 NBX      -0.224600
     19 C10         -5.1670     1.0440     0.6020 ca         1 NBX      -0.033500
     20 C11         -6.4000     0.6770     0.1120 ca         1 NBX      -0.226000
     21 C12         -6.5440    -0.4770    -0.6770 ca         1 NBX       0.212600
     22 C13         -5.3920    -1.2340    -0.9510 ca         1 NBX      -0.226000
     23 C14         -4.1620    -0.8490    -0.4600 ca         1 NBX      -0.033500
     24 N3          -7.7630    -0.8730    -1.1220 nv         1 NBX      -0.849200
     25 H1           2.1480    -0.2110     1.3200 h2         1 NBX       0.091700
     26 H2           2.4520    -1.5770    -1.3970 h1         1 NBX       0.048700
     27 HO2          1.2490    -2.8170     0.0870 ho         1 NBX       0.416000
     28 H3           4.3310    -1.4620     0.9980 h1         1 NBX       0.059700
     29 HO3          4.6180    -3.3420    -0.2250 ho         1 NBX       0.427000
     30 H4           4.5900    -0.1840    -1.7530 h1         1 NBX       0.051700
     31 HO4          6.5600    -0.7860    -0.6650 ho         1 NBX       0.426000
     32 H5           4.1200     1.0670     0.9930 h1         1 NBX       0.068700
     33 H6           5.5060     2.4090    -0.5790 h1         1 NBX       0.034200
     34 H6A          4.2280     2.3070    -1.7910 h1         1 NBX       0.034200
     35 HO6          4.0880     4.2170    -0.4350 ho         1 NBX       0.404000
     36 HN1          0.3150    -0.4970    -0.9680 hn         1 NBX       0.304500
     37 HN2         -1.7280    -0.3070    -0.5250 hn         1 NBX       0.309500
     38 H10         -5.0930     1.9370     1.2090 ha         1 NBX       0.136500
     39 H11         -7.2700     1.2830     0.3380 ha         1 NBX       0.134000
     40 H13         -5.4720    -2.1350    -1.5460 ha         1 NBX       0.134000
     41 H14         -3.3190    -1.4900    -0.6870 ha         1 NBX       0.136500
     42 HN3         -8.5210    -0.2120    -1.1050 hn         1 NBX       0.416800
     43 HN3A        -7.8100    -1.5440    -1.8700 hn         1 NBX       0.416800
@<TRIPOS>BOND
     1     1     2 1   
     2     1     9 1   
     3     2     3 1   
     4     2    12 1   
     5     2    25 1   
     6     3     4 1   
     7     3     5 1   
     8     3    26 1   
     9     4    27 1   
    10     5     6 1   
    11     5     7 1   
    12     5    28 1   
    13     6    29 1   
    14     7     8 1   
    15     7     9 1   
    16     7    30 1   
    17     8    31 1   
    18     9    10 1   
    19     9    32 1   
    20    10    11 1   
    21    10    33 1   
    22    10    34 1   
    23    11    35 1   
    24    12    13 1   
    25    12    36 1   
    26    13    14 2   
    27    13    15 1   
    28    15    16 1   
    29    15    37 1   
    30    16    17 2   
    31    16    18 1   
    32    18    19 ar  
    33    18    23 ar  
    34    19    20 ar  
    35    19    38 1   
    36    20    21 ar  
    37    20    39 1   
    38    21    22 ar  
    39    21    24 1   
    40    22    23 ar  
    41    22    40 1   
    42    23    41 1   
    43    24    42 1   
    44    24    43 1   
@<TRIPOS>SUBSTRUCTURE
     1 NBX         1 TEMP              0 ****  ****    0 ROOT
