@<TRIPOS>MOLECULE
NBX
   43    44     1     0     0
SMALL
No Charge or Current Charge


@<TRIPOS>ATOM
      1 O5           2.4610     0.7580    -0.2540 os         1 NBX      -0.461000
      2 C1           2.0460    -0.4010     0.4930 c6         1 NBX       0.310700
      3 C2           2.7460    -1.6730    -0.0950 c6         1 NBX       0.099300
      4 O2           2.3930    -2.8810     0.6200 oh         1 NBX      -0.715000
      5 C3           4.2860    -1.4670    -0.0470 c6         1 NBX       0.139300
      6 O3           4.9550    -2.6070    -0.6140 oh         1 NBX      -0.667000
      7 C4           4.6850    -0.1610    -0.7920 c6         1 NBX       0.142300
      8 O4           6.1100     0.0300    -0.7050 oh         1 NBX      -0.715000
      9 C5           3.8860     1.0380    -0.1900 c6         1 NBX       0.179300
     10 C6           4.1640     2.3790    -0.9480 c3         1 NBX       0.172600
     11 O6           3.4010     3.4940    -0.4420 oh         1 NBX      -0.704000
     12 N1           0.5960    -0.4710     0.3520 ns         1 NBX      -0.525900
     13 C7          -0.2840     0.2640     1.0960 c          1 NBX       0.668100
     14 O7           0.0610     0.9450     2.0460 o          1 NBX      -0.551100
     15 N2          -1.5680     0.1260     0.6630 ns         1 NBX      -0.494500
     16 C8          -2.7240     0.6860     1.1440 c          1 NBX       0.641700
     17 O8          -2.7370     1.4410     2.1050 o          1 NBX      -0.527100
     18 C9          -4.0010     0.3180     0.4140 ca         1 NBX      -0.224600
     19 C10         -5.2290     0.8610     0.8610 ca         1 NBX      -0.015500
     20 C11         -6.4330     0.5420     0.2090 ca         1 NBX      -0.208000
     21 C12         -6.4310    -0.3180    -0.8920 ca         1 NBX       0.351000
     22 C13         -5.2280    -0.8640    -1.3460 ca         1 NBX      -0.208000
     23 C14         -4.0170    -0.5530    -0.7040 ca         1 NBX      -0.015500
     24 N3          -7.6020    -0.6240    -1.5220 nv         1 NBX      -1.098000
     25 H1           2.3100    -0.2820     1.5570 h2         1 NBX       0.091700
     26 H2           2.4440    -1.7660    -1.1500 h1         1 NBX       0.048700
     27 HO2          1.4080    -2.9190     0.6730 ho         1 NBX       0.515000
     28 H3           4.5760    -1.3590     1.0100 h1         1 NBX       0.059700
     29 HO3          4.4160    -3.3790    -0.3210 ho         1 NBX       0.466000
     30 H4           4.3920    -0.2670    -1.8480 h1         1 NBX       0.051700
     31 HO4          6.4930    -0.8740    -0.8220 ho         1 NBX       0.525000
     32 H5           4.1740     1.1760     0.8630 h1         1 NBX       0.068700
     33 H6           5.2370     2.5990    -0.8750 h1         1 NBX       0.034200
     34 H6A          3.9370     2.2210    -2.0120 h1         1 NBX       0.034200
     35 HO6          3.5960     4.2640    -1.0250 ho         1 NBX       0.503000
     36 HN1          0.2280    -0.9700    -0.4450 hn         1 NBX       0.304500
     37 HN2         -1.6900    -0.4760    -0.1310 hn         1 NBX       0.309500
     38 H10         -5.2580     1.5330     1.7160 ha         1 NBX       0.118500
     39 H11         -7.3650     0.9680     0.5680 ha         1 NBX       0.116000
     40 H13         -5.2230    -1.5350    -2.2010 ha         1 NBX       0.116000
     41 H14         -3.1050    -1.0010    -1.0910 ha         1 NBX       0.118500
     42 HN3         -8.4390    -0.0860    -1.3050 hn         1 NBX       0.472000
     43 HN3A        -7.5770    -1.0960    -2.4240 hn         1 NBX       0.472000
@<TRIPOS>BOND
     1     1     2 1   
     2     1     9 1   
     3     2     3 1   
     4     2    12 1   
     5     2    25 1   
     6     3     4 1   
     7     3     5 1   
     8     3    26 1   
     9     4    27 1   
    10     5     6 1   
    11     5     7 1   
    12     5    28 1   
    13     6    29 1   
    14     7     8 1   
    15     7     9 1   
    16     7    30 1   
    17     8    31 1   
    18     9    10 1   
    19     9    32 1   
    20    10    11 1   
    21    10    33 1   
    22    10    34 1   
    23    11    35 1   
    24    12    13 1   
    25    12    36 1   
    26    13    14 2   
    27    13    15 1   
    28    15    16 1   
    29    15    37 1   
    30    16    17 2   
    31    16    18 1   
    32    18    19 ar  
    33    18    23 ar  
    34    19    20 ar  
    35    19    38 1   
    36    20    21 ar  
    37    20    39 1   
    38    21    22 ar  
    39    21    24 1   
    40    22    23 ar  
    41    22    40 1   
    42    23    41 1   
    43    24    42 1   
    44    24    43 1   
@<TRIPOS>SUBSTRUCTURE
     1 NBX         1 TEMP              0 ****  ****    0 ROOT
