@<TRIPOS>MOLECULE
NBY
   43    44     1     0     0
SMALL
abcg2


@<TRIPOS>ATOM
      1 O5          -3.2210    -0.7970    -0.4000 os         1 NBY      -0.464000
      2 C1          -2.7270     0.2990     0.3330 c6         1 NBY       0.308700
      3 C2          -3.3670     1.5980    -0.1660 c6         1 NBY       0.100300
      4 O2          -2.9790     2.6960     0.6180 oh         1 NBY      -0.713000
      5 C3          -4.8810     1.4750    -0.0690 c6         1 NBY       0.139300
      6 O3          -5.5380     2.5720    -0.6560 oh         1 NBY      -0.665000
      7 C4          -5.3680     0.2170    -0.7790 c6         1 NBY       0.142300
      8 O4          -6.7420     0.0110    -0.5650 oh         1 NBY      -0.714000
      9 C5          -4.6100    -0.9990    -0.2440 c6         1 NBY       0.179300
     10 C6          -4.9790    -2.2650    -0.9880 c3         1 NBY       0.172600
     11 O6          -4.3190    -3.3530    -0.3850 oh         1 NBY      -0.706000
     12 N1          -1.3130     0.3560     0.1670 ns         1 NBY      -0.517900
     13 C7          -0.4520    -0.2560     1.0220 c          1 NBY       0.667100
     14 O7          -0.7820    -0.8010     2.0500 o          1 NBY      -0.541100
     15 N2           0.8730    -0.1510     0.5940 ns         1 NBY      -0.489500
     16 C8           1.9620    -0.7250     1.1960 c          1 NBY       0.625700
     17 O8           1.9080    -1.4800     2.1380 o          1 NBY      -0.502100
     18 C9           3.2780    -0.3610     0.5790 ca         1 NBY      -0.119600
     19 C10          4.3190    -1.2780     0.6930 ca         1 NBY      -0.085000
     20 C11          5.5650    -0.9980     0.1640 ca         1 NBY      -0.054500
     21 C12          5.7630     0.2230    -0.4630 ca         1 NBY      -0.157200
     22 C13          4.7510     1.1610    -0.5730 ca         1 NBY      -0.054500
     23 C14          3.5040     0.8600    -0.0510 ca         1 NBY      -0.085000
     24 N3           7.0770     0.5300    -1.0200 no         1 NBY       0.691200
     25 O9           7.2290     1.6060    -1.5460 o          1 NBY      -0.390500
     26 O10          7.9400    -0.3090    -0.9270 o          1 NBY      -0.390500
     27 H1          -2.9500     0.1780     1.4000 h2         1 NBY       0.092700
     28 H2          -3.0920     1.7380    -1.2230 h1         1 NBY       0.049700
     29 HO2         -2.0530     2.8920     0.4450 ho         1 NBY       0.514000
     30 H3          -5.1490     1.3840     0.9960 h1         1 NBY       0.060700
     31 HO3         -5.3990     3.3460    -0.1020 ho         1 NBY       0.467000
     32 H4          -5.1450     0.3170    -1.8540 h1         1 NBY       0.051700
     33 HO4         -7.2140     0.7870    -0.8830 ho         1 NBY       0.526000
     34 H5          -4.8560    -1.1250     0.8230 h1         1 NBY       0.069700
     35 H16         -6.0670    -2.3820    -0.9550 h1         1 NBY       0.036200
     36 H26         -4.6980    -2.1500    -2.0440 h1         1 NBY       0.036200
     37 HO6         -4.5750    -4.1510    -0.8560 ho         1 NBY       0.505000
     38 HN1         -0.9730     0.6730    -0.7300 hn         1 NBY       0.306500
     39 HN2          1.0400     0.3610    -0.2600 hn         1 NBY       0.314500
     40 H10          4.1580    -2.2250     1.1900 ha         1 NBY       0.138500
     41 H11          6.3600    -1.7240     0.2500 ha         1 NBY       0.157500
     42 H13          4.9150     2.1160    -1.0500 ha         1 NBY       0.157500
     43 H14          2.7280     1.6100    -0.1250 ha         1 NBY       0.138500
@<TRIPOS>BOND
     1     1     2 1   
     2     1     9 1   
     3     2     3 1   
     4     2    12 1   
     5     2    27 1   
     6     3     4 1   
     7     3     5 1   
     8     3    28 1   
     9     4    29 1   
    10     5     6 1   
    11     5     7 1   
    12     5    30 1   
    13     6    31 1   
    14     7     8 1   
    15     7     9 1   
    16     7    32 1   
    17     8    33 1   
    18     9    10 1   
    19     9    34 1   
    20    10    11 1   
    21    10    35 1   
    22    10    36 1   
    23    11    37 1   
    24    12    13 1   
    25    12    38 1   
    26    13    14 2   
    27    13    15 1   
    28    15    16 1   
    29    15    39 1   
    30    16    17 2   
    31    16    18 1   
    32    18    19 ar  
    33    18    23 ar  
    34    19    20 ar  
    35    19    40 1   
    36    20    21 ar  
    37    20    41 1   
    38    21    22 ar  
    39    21    24 1   
    40    22    23 ar  
    41    22    42 1   
    42    23    43 1   
    43    24    25 1   
    44    24    26 1   
@<TRIPOS>SUBSTRUCTURE
     1 NBY         1 TEMP              0 ****  ****    0 ROOT
