@<TRIPOS>MOLECULE
NBY
   43    44     1     0     0
SMALL
No Charge or Current Charge


@<TRIPOS>ATOM
      1 O5          -3.1860    -0.7300    -0.3050 os         1 NBY      -0.464000
      2 C1          -2.7770     0.3710     0.5290 c6         1 NBY       0.308700
      3 C2          -3.4380     1.6910     0.0030 c6         1 NBY       0.100300
      4 O2          -3.0900     2.8440     0.8080 oh         1 NBY      -0.713000
      5 C3          -4.9820     1.5100    -0.0100 c6         1 NBY       0.139300
      6 O3          -5.6150     2.6950    -0.5230 oh         1 NBY      -0.665000
      7 C4          -5.3770     0.2620    -0.8510 c6         1 NBY       0.142300
      8 O4          -6.8070     0.0900    -0.8220 oh         1 NBY      -0.714000
      9 C5          -4.6170    -0.9880    -0.3030 c6         1 NBY       0.179300
     10 C6          -4.8910    -2.2720    -1.1560 c3         1 NBY       0.172600
     11 O6          -4.1630    -3.4310    -0.6980 oh         1 NBY      -0.706000
     12 N1          -1.3230     0.4230     0.4370 ns         1 NBY      -0.517900
     13 C7          -0.4790    -0.3760     1.1580 c          1 NBY       0.667100
     14 O7          -0.8660    -1.1130     2.0480 o          1 NBY      -0.541100
     15 N2           0.8220    -0.2360     0.7770 ns         1 NBY      -0.489500
     16 C8           1.9520    -0.8530     1.2580 c          1 NBY       0.625700
     17 O8           1.9120    -1.6700     2.1670 o          1 NBY      -0.502100
     18 C9           3.2660    -0.4670     0.5990 ca         1 NBY      -0.119600
     19 C10          4.4660    -1.0640     1.0490 ca         1 NBY      -0.085000
     20 C11          5.7040    -0.7370     0.4690 ca         1 NBY      -0.054500
     21 C12          5.7760     0.2020    -0.5840 ca         1 NBY      -0.157200
     22 C13          4.5820     0.8040    -1.0400 ca         1 NBY      -0.054500
     23 C14          3.3450     0.4750    -0.4580 ca         1 NBY      -0.085000
     24 N3           7.0950     0.5530    -1.2050 no         1 NBY       0.691200
     25 O9           7.1070     1.3830    -2.1250 o          1 NBY      -0.390500
     26 O10          8.1140    -0.0010    -0.7700 o          1 NBY      -0.390500
     27 H1          -3.0770     0.1890     1.5740 h2         1 NBY       0.092700
     28 H2          -3.1010     1.8470    -1.0330 h1         1 NBY       0.049700
     29 HO2         -2.1070     2.8680     0.8840 ho         1 NBY       0.514000
     30 H3          -5.3080     1.3390     1.0280 h1         1 NBY       0.060700
     31 HO3         -5.0760     3.4370    -0.1610 ho         1 NBY       0.467000
     32 H4          -5.0480     0.4300    -1.8880 h1         1 NBY       0.051700
     33 HO4         -7.1730     1.0060    -0.8930 ho         1 NBY       0.526000
     34 H5          -4.9410    -1.1880     0.7290 h1         1 NBY       0.069700
     35 H16         -5.9700    -2.4760    -1.1310 h1         1 NBY       0.036200
     36 H26         -4.6270    -2.0490    -2.1990 h1         1 NBY       0.036200
     37 HO6         -4.3520    -4.1590    -1.3360 ho         1 NBY       0.505000
     38 HN1         -0.9210     0.9680    -0.3130 hn         1 NBY       0.306500
     39 HN2          0.9820     0.4150     0.0290 hn         1 NBY       0.314500
     40 H10          4.4470    -1.7920     1.8580 ha         1 NBY       0.138500
     41 H11          6.6040    -1.2210     0.8460 ha         1 NBY       0.157500
     42 H13          4.6020     1.5320    -1.8500 ha         1 NBY       0.157500
     43 H14          2.4570     0.9670    -0.8470 ha         1 NBY       0.138500
@<TRIPOS>BOND
     1     1     2 1   
     2     1     9 1   
     3     2     3 1   
     4     2    12 1   
     5     2    27 1   
     6     3     4 1   
     7     3     5 1   
     8     3    28 1   
     9     4    29 1   
    10     5     6 1   
    11     5     7 1   
    12     5    30 1   
    13     6    31 1   
    14     7     8 1   
    15     7     9 1   
    16     7    32 1   
    17     8    33 1   
    18     9    10 1   
    19     9    34 1   
    20    10    11 1   
    21    10    35 1   
    22    10    36 1   
    23    11    37 1   
    24    12    13 1   
    25    12    38 1   
    26    13    14 2   
    27    13    15 1   
    28    15    16 1   
    29    15    39 1   
    30    16    17 2   
    31    16    18 1   
    32    18    19 ar  
    33    18    23 ar  
    34    19    20 ar  
    35    19    40 1   
    36    20    21 ar  
    37    20    41 1   
    38    21    22 ar  
    39    21    24 1   
    40    22    23 ar  
    41    22    42 1   
    42    23    43 1   
    43    24    25 1   
    44    24    26 1   
@<TRIPOS>SUBSTRUCTURE
     1 NBY         1 TEMP              0 ****  ****    0 ROOT
