@<TRIPOS>MOLECULE
NBZ
   14    14     1     0     0
SMALL
bcc


@<TRIPOS>ATOM
      1 C1          -0.4860     1.2220    -0.0060 ca         1 NBZ      -0.064000
      2 C2          -1.8710     1.2160    -0.0100 ca         1 NBZ      -0.139000
      3 C3          -2.5660     0.0130    -0.0140 ca         1 NBZ      -0.085000
      4 C4          -1.8760    -1.1930    -0.0120 ca         1 NBZ      -0.139000
      5 C5          -0.4910    -1.2050    -0.0050 ca         1 NBZ      -0.064000
      6 C6           0.1850     0.0070    -0.0030 ca         1 NBZ      -0.178200
      7 N1           1.6410     0.0040     0.0030 no         1 NBZ       0.313200
      8 O1           2.2070    -1.0630     0.0400 o          1 NBZ      -0.209000
      9 O2           2.2120     1.0680    -0.0300 o          1 NBZ      -0.209000
     10 H1           0.0530     2.1590    -0.0030 ha         1 NBZ       0.169000
     11 H2          -2.4080     2.1540    -0.0110 ha         1 NBZ       0.146000
     12 H3          -3.6470     0.0150    -0.0170 ha         1 NBZ       0.142000
     13 H4          -2.4170    -2.1290    -0.0150 ha         1 NBZ       0.146000
     14 H5           0.0430    -2.1440    -0.0040 ha         1 NBZ       0.169000
@<TRIPOS>BOND
     1     1     2 ar  
     2     1     6 ar  
     3     1    10 1   
     4     2     3 ar  
     5     2    11 1   
     6     3     4 ar  
     7     3    12 1   
     8     4     5 ar  
     9     4    13 1   
    10     5     6 ar  
    11     5    14 1   
    12     6     7 1   
    13     7     8 1   
    14     7     9 1   
@<TRIPOS>SUBSTRUCTURE
     1 NBZ         1 TEMP              0 ****  ****    0 ROOT
