@<TRIPOS>MOLECULE
NBZ
   14    14     1     0     0
SMALL
No Charge or Current Charge


@<TRIPOS>ATOM
      1 C1          -0.4960     1.2290    -0.0090 ca         1 NBZ      -0.046000
      2 C2          -1.9030     1.2270    -0.0140 ca         1 NBZ      -0.121000
      3 C3          -2.6090     0.0130    -0.0140 ca         1 NBZ      -0.067000
      4 C4          -1.9080    -1.2040    -0.0080 ca         1 NBZ      -0.121000
      5 C5          -0.5020    -1.2120    -0.0030 ca         1 NBZ      -0.046000
      6 C6           0.2190     0.0070    -0.0030 ca         1 NBZ      -0.178200
      7 N1           1.7190     0.0040     0.0030 no         1 NBZ       0.693200
      8 O1           2.3020    -1.0890     0.0080 o          1 NBZ      -0.399000
      9 O2           2.3070     1.0940     0.0030 o          1 NBZ      -0.399000
     10 H1           0.0280     2.1830    -0.0090 ha         1 NBZ       0.151000
     11 H2          -2.4460     2.1700    -0.0180 ha         1 NBZ       0.128000
     12 H3          -3.6970     0.0150    -0.0180 ha         1 NBZ       0.124000
     13 H4          -2.4550    -2.1440    -0.0080 ha         1 NBZ       0.128000
     14 H5           0.0190    -2.1680     0.0020 ha         1 NBZ       0.151000
@<TRIPOS>BOND
     1     1     2 ar  
     2     1     6 ar  
     3     1    10 1   
     4     2     3 ar  
     5     2    11 1   
     6     3     4 ar  
     7     3    12 1   
     8     4     5 ar  
     9     4    13 1   
    10     5     6 ar  
    11     5    14 1   
    12     6     7 1   
    13     7     8 1   
    14     7     9 1   
@<TRIPOS>SUBSTRUCTURE
     1 NBZ         1 TEMP              0 ****  ****    0 ROOT
