@<TRIPOS>MOLECULE
NC0
   34    36     1     0     0
SMALL
bcc


@<TRIPOS>ATOM
      1 C1          -6.7820   -10.9540    14.3650 ca         1 NC0       0.101600
      2 C12         -8.5590   -12.1540    12.5990 ca         1 NC0      -0.177000
      3 C13         -2.9110    -9.2210    14.1280 ca         1 NC0       0.100600
      4 C14         -1.9380    -9.8870    13.3510 ca         1 NC0      -0.197600
      5 C15         -2.6830    -7.9020    14.5330 ca         1 NC0      -0.187000
      6 C16         -0.7650    -9.2050    13.0330 ca         1 NC0      -0.081000
      7 C17         -2.1110   -11.3100    12.8330 c          1 NC0       0.932200
      8 C18         -1.5060    -7.2560    14.1960 ca         1 NC0      -0.124000
      9 C19         -0.5340    -7.9040    13.4460 ca         1 NC0      -0.194000
     10 C3          -7.8720   -11.6850    14.8450 ca         1 NC0      -0.153300
     11 C4          -6.5840   -10.8030    12.9980 ca         1 NC0      -0.134000
     12 C6          -6.8870   -10.5350    16.6650 c5         1 NC0       0.112000
     13 C7          -7.8630   -11.6720    16.3450 c5         1 NC0      -0.041100
     14 C8          -8.7560   -12.2870    13.9730 ca         1 NC0      -0.097000
     15 C9          -7.4840   -11.4150    12.1280 ca         1 NC0      -0.098000
     16 N10         -4.0980    -9.8940    14.4000 ns         1 NC0      -0.507100
     17 N2          -6.0770   -10.4180    15.4490 n          1 NC0      -0.398000
     18 O11         -4.6500    -8.9780    16.4310 o          1 NC0      -0.657100
     19 O20         -1.1500   -11.8260    12.2480 o          1 NC0      -0.809800
     20 O21         -3.2270   -11.8640    13.0310 o          1 NC0      -0.809800
     21 H28         -9.2460   -12.6190    11.9050 ha         1 NC0       0.118000
     22 H29         -3.4300    -7.3720    15.1040 ha         1 NC0       0.134000
     23 H30         -0.0190    -9.7200    12.4430 ha         1 NC0       0.144000
     24 H31         -1.3550    -6.2330    14.5190 ha         1 NC0       0.103000
     25 H32          0.3870    -7.4010    13.1820 ha         1 NC0       0.107000
     26 H22         -5.7700   -10.2200    12.5950 ha         1 NC0       0.167000
     27 H23         -6.2600   -10.7470    17.5280 h1         1 NC0       0.050200
     28 H1          -7.4230    -9.6010    16.8550 h1         1 NC0       0.050200
     29 H2          -8.8470   -11.4970    16.7790 hc         1 NC0       0.048200
     30 H24         -7.5000   -12.6270    16.7360 hc         1 NC0       0.048200
     31 H25         -9.5980   -12.8520    14.3540 ha         1 NC0       0.116000
     32 H26         -7.3380   -11.2980    11.0620 ha         1 NC0       0.126000
     33 H27         -4.0930   -10.8120    13.9040 hn         1 NC0       0.406500
     34 C5          -4.9090    -9.6960    15.4760 c          1 NC0       0.801100
@<TRIPOS>BOND
     1     1    10 ar  
     2     1    11 ar  
     3     1    17 1   
     4     2    14 ar  
     5     2    15 ar  
     6     2    21 1   
     7     3     4 ar  
     8     3     5 ar  
     9     3    16 1   
    10     4     6 ar  
    11     4     7 1   
    12     5     8 ar  
    13     5    22 1   
    14     6     9 ar  
    15     6    23 1   
    16     7    19 1   
    17     7    20 1   
    18     8     9 ar  
    19     8    24 1   
    20     9    25 1   
    21    10    13 1   
    22    10    14 ar  
    23    11    15 ar  
    24    11    26 1   
    25    12    13 1   
    26    12    17 1   
    27    12    27 1   
    28    12    28 1   
    29    13    29 1   
    30    13    30 1   
    31    14    31 1   
    32    15    32 1   
    33    16    33 1   
    34    16    34 1   
    35    17    34 1   
    36    18    34 2   
@<TRIPOS>SUBSTRUCTURE
     1 NC0         1 TEMP              0 ****  ****    0 ROOT
