@<TRIPOS>MOLECULE
NC0
   34    36     1     0     0
SMALL
No Charge or Current Charge


@<TRIPOS>ATOM
      1 C1          -6.8260   -10.9460    14.3850 ca         1 NC0       0.009000
      2 C12         -8.4680   -12.3450    12.6060 ca         1 NC0      -0.159000
      3 C13         -2.8720    -9.1670    14.1060 ca         1 NC0       0.008000
      4 C14         -1.9500    -9.8210    13.2430 ca         1 NC0      -0.197600
      5 C15         -2.5660    -7.8790    14.5990 ca         1 NC0      -0.169000
      6 C16         -0.7350    -9.1730    12.9210 ca         1 NC0      -0.063000
      7 C17         -2.2110   -11.2010    12.6720 c          1 NC0       0.721600
      8 C18         -1.3590    -7.2490    14.2640 ca         1 NC0      -0.106000
      9 C19         -0.4420    -7.8970    13.4280 ca         1 NC0      -0.176000
     10 C3          -7.8980   -11.6760    14.8610 ca         1 NC0      -0.153300
     11 C4          -6.5490   -10.8830    13.0040 ca         1 NC0      -0.116000
     12 C6          -6.9140   -10.5560    16.7670 c5         1 NC0       0.112000
     13 C7          -8.0440   -11.5900    16.3690 c5         1 NC0      -0.041100
     14 C8          -8.7340   -12.3870    13.9880 ca         1 NC0      -0.079000
     15 C9          -7.3830   -11.5910    12.1160 ca         1 NC0      -0.080000
     16 N10         -4.1000    -9.7990    14.4440 ns         1 NC0      -0.181000
     17 N2          -6.1570   -10.3700    15.5000 n          1 NC0      -0.238400
     18 O11         -4.6080    -9.0180    16.5350 o          1 NC0      -0.657100
     19 O20         -1.2550   -11.9440    12.5050 o          1 NC0      -0.704500
     20 O21         -3.3560   -11.5070    12.3780 o          1 NC0      -0.704500
     21 H28         -9.1080   -12.8890    11.9150 ha         1 NC0       0.100000
     22 H29         -3.2680    -7.3470    15.2350 ha         1 NC0       0.116000
     23 H30         -0.0130    -9.6590    12.2670 ha         1 NC0       0.126000
     24 H31         -1.1370    -6.2570    14.6510 ha         1 NC0       0.085000
     25 H32          0.4950    -7.4110    13.1680 ha         1 NC0       0.089000
     26 H22         -5.7430   -10.2830    12.5950 ha         1 NC0       0.149000
     27 H23         -6.2750   -10.9460    17.5700 h1         1 NC0       0.050200
     28 H1          -7.3470    -9.6030    17.1000 h1         1 NC0       0.050200
     29 H2          -9.0360   -11.2420    16.6760 hc         1 NC0       0.048200
     30 H24         -7.8750   -12.5630    16.8440 hc         1 NC0       0.048200
     31 H25         -9.5770   -12.9590    14.3700 ha         1 NC0       0.098000
     32 H26         -7.1900   -11.5520    11.0460 ha         1 NC0       0.108000
     33 H27         -4.4050   -10.4880    13.7680 hn         1 NC0       0.240000
     34 C5          -4.9290    -9.6650    15.5420 c          1 NC0       0.667100
@<TRIPOS>BOND
     1     1    10 ar  
     2     1    11 ar  
     3     1    17 1   
     4     2    14 ar  
     5     2    15 ar  
     6     2    21 1   
     7     3     4 ar  
     8     3     5 ar  
     9     3    16 1   
    10     4     6 ar  
    11     4     7 1   
    12     5     8 ar  
    13     5    22 1   
    14     6     9 ar  
    15     6    23 1   
    16     7    19 1   
    17     7    20 1   
    18     8     9 ar  
    19     8    24 1   
    20     9    25 1   
    21    10    13 1   
    22    10    14 ar  
    23    11    15 ar  
    24    11    26 1   
    25    12    13 1   
    26    12    17 1   
    27    12    27 1   
    28    12    28 1   
    29    13    29 1   
    30    13    30 1   
    31    14    31 1   
    32    15    32 1   
    33    16    33 1   
    34    16    34 1   
    35    17    34 1   
    36    18    34 2   
@<TRIPOS>SUBSTRUCTURE
     1 NC0         1 TEMP              0 ****  ****    0 ROOT
