@<TRIPOS>MOLECULE
NC3
   29    29     1     0     0
SMALL
abcg2


@<TRIPOS>ATOM
      1 C1          -1.8910     0.1120     0.3110 c6         1 NC3       0.120700
      2 N2          -0.5200     0.5490     0.1530 ns         1 NC3      -0.522900
      3 C3           0.5340    -0.2530     0.4930 c          1 NC3       0.633100
      4 N4           1.7410     0.1740     0.0670 ns         1 NC3      -0.490900
      5 C5           2.9630    -0.5340     0.3350 c3         1 NC3      -0.041000
      6 C6           4.1620     0.1460    -0.3580 c          1 NC3       0.711000
      7 O7           5.2610    -0.4100    -0.1800 o          1 NC3      -0.732500
      8 O8           0.3970    -1.2710     1.1700 o          1 NC3      -0.687100
      9 O9           3.9330     1.1740    -1.0250 o          1 NC3      -0.732500
     10 C10         -2.8090     1.3230     0.4520 c6         1 NC3      -0.093400
     11 C11         -4.2640     0.9000     0.6340 c6         1 NC3      -0.070900
     12 C12         -4.7310    -0.0120    -0.4960 c6         1 NC3      -0.075400
     13 C13         -3.8100    -1.2190    -0.6450 c6         1 NC3      -0.070900
     14 C14         -2.3590    -0.7870    -0.8350 c6         1 NC3      -0.093400
     15 H1          -1.9400    -0.4640     1.2390 h1         1 NC3       0.078700
     16 HN2         -0.3620     1.2590    -0.5460 hn         1 NC3       0.290500
     17 HN4          1.8420     0.9890    -0.5200 hn         1 NC3       0.334500
     18 H51          2.9060    -1.5710    -0.0110 h1         1 NC3       0.033200
     19 H52          3.1690    -0.5810     1.4100 h1         1 NC3       0.033200
     20 H101        -2.4820     1.9340     1.2970 hc         1 NC3       0.044200
     21 H102        -2.7220     1.9490    -0.4440 hc         1 NC3       0.044200
     22 H111        -4.3710     0.3780     1.5900 hc         1 NC3       0.034450
     23 H112        -4.9020     1.7850     0.6920 hc         1 NC3       0.034450
     24 H121        -5.7580    -0.3380    -0.3160 hc         1 NC3       0.030200
     25 H122        -4.7430     0.5520    -1.4350 hc         1 NC3       0.030200
     26 H131        -3.8860    -1.8440     0.2520 hc         1 NC3       0.034450
     27 H132        -4.1300    -1.8420    -1.4830 hc         1 NC3       0.034450
     28 H141        -2.2600    -0.2390    -1.7800 hc         1 NC3       0.044200
     29 H142        -1.7070    -1.6610    -0.9040 hc         1 NC3       0.044200
@<TRIPOS>BOND
     1     1     2 1   
     2     1    10 1   
     3     1    14 1   
     4     1    15 1   
     5     2     3 1   
     6     2    16 1   
     7     3     4 1   
     8     3     8 2   
     9     4     5 1   
    10     4    17 1   
    11     5     6 1   
    12     5    18 1   
    13     5    19 1   
    14     6     7 1   
    15     6     9 1   
    16    10    11 1   
    17    10    20 1   
    18    10    21 1   
    19    11    12 1   
    20    11    22 1   
    21    11    23 1   
    22    12    13 1   
    23    12    24 1   
    24    12    25 1   
    25    13    14 1   
    26    13    26 1   
    27    13    27 1   
    28    14    28 1   
    29    14    29 1   
@<TRIPOS>SUBSTRUCTURE
     1 NC3         1 TEMP              0 ****  ****    0 ROOT
