@<TRIPOS>MOLECULE
NC3
   29    29     1     0     0
SMALL
No Charge or Current Charge


@<TRIPOS>ATOM
      1 C1          -1.9100     0.0230     0.3270 c6         1 NC3       0.120700
      2 N2          -0.5000     0.3590     0.1040 ns         1 NC3      -0.522900
      3 C3           0.5670    -0.4200     0.4590 c          1 NC3       0.633100
      4 N4           1.7660     0.1340     0.1070 ns         1 NC3      -0.490900
      5 C5           3.0910    -0.4740     0.3740 c3         1 NC3      -0.041000
      6 C6           4.2460     0.2800    -0.3460 c          1 NC3       0.711000
      7 O7           5.1570    -0.3830    -0.8240 o          1 NC3      -0.732500
      8 O8           0.4600    -1.4920     1.0310 o          1 NC3      -0.687100
      9 O9           4.1760     1.4980    -0.4490 o          1 NC3      -0.732500
     10 C10         -2.7650     1.3160     0.3750 c6         1 NC3      -0.093400
     11 C11         -4.2670     0.9960     0.5780 c6         1 NC3      -0.070900
     12 C12         -4.7890     0.0450    -0.5270 c6         1 NC3      -0.075400
     13 C13         -3.9350    -1.2440    -0.6030 c6         1 NC3      -0.070900
     14 C14         -2.4350    -0.9110    -0.7970 c6         1 NC3      -0.093400
     15 H1          -1.9980    -0.4950     1.2950 h1         1 NC3       0.078700
     16 HN2         -0.2920     1.2310    -0.3640 hn         1 NC3       0.290500
     17 HN4          1.7440     1.0360    -0.3540 hn         1 NC3       0.334500
     18 H51          3.0810    -1.5180     0.0340 h1         1 NC3       0.033200
     19 H52          3.2840    -0.4550     1.4540 h1         1 NC3       0.033200
     20 H101        -2.4150     1.9630     1.1910 hc         1 NC3       0.044200
     21 H102        -2.6340     1.8870    -0.5550 hc         1 NC3       0.044200
     22 H111        -4.4170     0.5350     1.5640 hc         1 NC3       0.034450
     23 H112        -4.8510     1.9260     0.5750 hc         1 NC3       0.034450
     24 H121        -5.8390    -0.2130    -0.3320 hc         1 NC3       0.030200
     25 H122        -4.7690     0.5600    -1.4970 hc         1 NC3       0.030200
     26 H131        -4.0670    -1.8310     0.3170 hc         1 NC3       0.034450
     27 H132        -4.2870    -1.8760    -1.4290 hc         1 NC3       0.034450
     28 H141        -2.2870    -0.4360    -1.7770 hc         1 NC3       0.044200
     29 H142        -1.8530    -1.8420    -0.8120 hc         1 NC3       0.044200
@<TRIPOS>BOND
     1     1     2 1   
     2     1    10 1   
     3     1    14 1   
     4     1    15 1   
     5     2     3 1   
     6     2    16 1   
     7     3     4 1   
     8     3     8 2   
     9     4     5 1   
    10     4    17 1   
    11     5     6 1   
    12     5    18 1   
    13     5    19 1   
    14     6     7 1   
    15     6     9 1   
    16    10    11 1   
    17    10    20 1   
    18    10    21 1   
    19    11    12 1   
    20    11    22 1   
    21    11    23 1   
    22    12    13 1   
    23    12    24 1   
    24    12    25 1   
    25    13    14 1   
    26    13    26 1   
    27    13    27 1   
    28    14    28 1   
    29    14    29 1   
@<TRIPOS>SUBSTRUCTURE
     1 NC3         1 TEMP              0 ****  ****    0 ROOT
