@<TRIPOS>MOLECULE
NC4
   35    35     1     0     0
SMALL
abcg2


@<TRIPOS>ATOM
      1 C1          -3.0020     0.0680     0.2300 c6         1 NC4       0.120700
      2 N2          -1.6250     0.4980     0.0990 ns         1 NC4      -0.523900
      3 C3          -0.5740    -0.3090     0.4120 c          1 NC4       0.635100
      4 N4           0.6460     0.1740     0.0500 ns         1 NC4      -0.500900
      5 C5           1.8710    -0.4430     0.5140 c3         1 NC4       0.093000
      6 C6           3.0730     0.1620    -0.1940 c3         1 NC4      -0.070400
      7 C7           4.3780    -0.4440     0.2930 c3         1 NC4      -0.205400
      8 C8           5.6560     0.1440    -0.3320 c          1 NC4       0.718000
      9 O9           6.7100    -0.4960    -0.1310 o          1 NC4      -0.740500
     10 O10         -0.7100    -1.3890     0.9810 o          1 NC4      -0.657100
     11 O11          5.5520     1.2140    -0.9640 o          1 NC4      -0.740500
     12 C12         -3.8990     1.2800     0.4660 c6         1 NC4      -0.092400
     13 C13         -5.3610     0.8690     0.6140 c6         1 NC4      -0.070900
     14 C14         -5.8400     0.0600    -0.5870 c6         1 NC4      -0.076400
     15 C15         -4.9420    -1.1490    -0.8280 c6         1 NC4      -0.070900
     16 C16         -3.4820    -0.7340    -0.9820 c6         1 NC4      -0.092400
     17 H1          -3.0570    -0.5750     1.1120 h1         1 NC4       0.079700
     18 HN2         -1.4590     1.2710    -0.5280 hn         1 NC4       0.295500
     19 HN4          0.7110     1.1510    -0.1930 hn         1 NC4       0.296500
     20 H51          1.8270    -1.5160     0.3170 h1         1 NC4       0.040200
     21 H52          1.9890    -0.3280     1.5990 h1         1 NC4       0.040200
     22 H61          3.0870     1.2430    -0.0290 hc         1 NC4       0.042700
     23 H62          2.9670     0.0160    -1.2720 hc         1 NC4       0.042700
     24 H71          4.3720    -1.5270     0.1290 hc         1 NC4       0.019200
     25 H72          4.4520    -0.3230     1.3810 hc         1 NC4       0.019200
     26 H121        -3.5620     1.8160     1.3560 hc         1 NC4       0.044700
     27 H122        -3.7990     1.9720    -0.3800 hc         1 NC4       0.044700
     28 H131        -5.4750     0.2690     1.5230 hc         1 NC4       0.037700
     29 H132        -5.9840     1.7560     0.7480 hc         1 NC4       0.037700
     30 H141        -6.8750    -0.2610    -0.4390 hc         1 NC4       0.033700
     31 H142        -5.8370     0.6970    -1.4780 hc         1 NC4       0.033700
     32 H151        -5.0360    -1.8430     0.0140 hc         1 NC4       0.037700
     33 H152        -5.2710    -1.6950    -1.7160 hc         1 NC4       0.037700
     34 H161        -3.3690    -0.1180    -1.8820 hc         1 NC4       0.044700
     35 H162        -2.8470    -1.6120    -1.1140 hc         1 NC4       0.044700
@<TRIPOS>BOND
     1     1     2 1   
     2     1    12 1   
     3     1    16 1   
     4     1    17 1   
     5     2     3 1   
     6     2    18 1   
     7     3     4 1   
     8     3    10 2   
     9     4     5 1   
    10     4    19 1   
    11     5     6 1   
    12     5    20 1   
    13     5    21 1   
    14     6     7 1   
    15     6    22 1   
    16     6    23 1   
    17     7     8 1   
    18     7    24 1   
    19     7    25 1   
    20     8     9 1   
    21     8    11 1   
    22    12    13 1   
    23    12    26 1   
    24    12    27 1   
    25    13    14 1   
    26    13    28 1   
    27    13    29 1   
    28    14    15 1   
    29    14    30 1   
    30    14    31 1   
    31    15    16 1   
    32    15    32 1   
    33    15    33 1   
    34    16    34 1   
    35    16    35 1   
@<TRIPOS>SUBSTRUCTURE
     1 NC4         1 TEMP              0 ****  ****    0 ROOT
