@<TRIPOS>MOLECULE
NC4
   35    35     1     0     0
SMALL
No Charge or Current Charge


@<TRIPOS>ATOM
      1 C1          -3.0250     0.0350     0.2800 c6         1 NC4       0.120700
      2 N2          -1.6010     0.3250     0.0780 ns         1 NC4      -0.523900
      3 C3          -0.5650    -0.4570     0.5060 c          1 NC4       0.635100
      4 N4           0.6560     0.0510     0.1560 ns         1 NC4      -0.500900
      5 C5           1.9320    -0.5810     0.4850 c3         1 NC4       0.093000
      6 C6           3.1280     0.2260    -0.0580 c3         1 NC4      -0.070400
      7 C7           4.4960    -0.4190     0.2760 c3         1 NC4      -0.205400
      8 C8           5.6420     0.4360    -0.2940 c          1 NC4       0.718000
      9 O9           6.0150     0.2140    -1.4360 o          1 NC4      -0.740500
     10 O10         -0.7120    -1.4920     1.1330 o          1 NC4      -0.657100
     11 O11          6.0940     1.3320     0.4020 o          1 NC4      -0.740500
     12 C12         -3.8490     1.3470     0.2240 c6         1 NC4      -0.092400
     13 C13         -5.3630     1.0730     0.4020 c6         1 NC4      -0.070900
     14 C14         -5.8770     0.0690    -0.6580 c6         1 NC4      -0.076400
     15 C15         -5.0530    -1.2410    -0.6300 c6         1 NC4      -0.070900
     16 C16         -3.5400    -0.9540    -0.8000 c6         1 NC4      -0.092400
     17 H1          -3.1520    -0.4210     1.2740 h1         1 NC4       0.079700
     18 HN2         -1.3580     1.1640    -0.4320 hn         1 NC4       0.295500
     19 HN4          0.6660     0.9180    -0.3650 hn         1 NC4       0.296500
     20 H51          1.9460    -1.5920     0.0570 h1         1 NC4       0.040200
     21 H52          2.0120    -0.6670     1.5770 h1         1 NC4       0.040200
     22 H61          3.0950     1.2400     0.3600 hc         1 NC4       0.042700
     23 H62          3.0300     0.3230    -1.1460 hc         1 NC4       0.042700
     24 H71          4.4850    -1.4090    -0.1980 hc         1 NC4       0.019200
     25 H72          4.5520    -0.4540     1.3710 hc         1 NC4       0.019200
     26 H121        -3.5060     2.0350     1.0090 hc         1 NC4       0.044700
     27 H122        -3.6780     1.8570    -0.7340 hc         1 NC4       0.044700
     28 H131        -5.5520     0.6780     1.4100 hc         1 NC4       0.037700
     29 H132        -5.9250     2.0150     0.3260 hc         1 NC4       0.037700
     30 H141        -6.9380    -0.1540    -0.4780 hc         1 NC4       0.033700
     31 H142        -5.8170     0.5220    -1.6570 hc         1 NC4       0.033700
     32 H151        -5.2250    -1.7670     0.3190 hc         1 NC4       0.037700
     33 H152        -5.3970    -1.9150    -1.4270 hc         1 NC4       0.037700
     34 H161        -3.3530    -0.5430    -1.8020 hc         1 NC4       0.044700
     35 H162        -2.9800    -1.8970    -0.7410 hc         1 NC4       0.044700
@<TRIPOS>BOND
     1     1     2 1   
     2     1    12 1   
     3     1    16 1   
     4     1    17 1   
     5     2     3 1   
     6     2    18 1   
     7     3     4 1   
     8     3    10 2   
     9     4     5 1   
    10     4    19 1   
    11     5     6 1   
    12     5    20 1   
    13     5    21 1   
    14     6     7 1   
    15     6    22 1   
    16     6    23 1   
    17     7     8 1   
    18     7    24 1   
    19     7    25 1   
    20     8     9 1   
    21     8    11 1   
    22    12    13 1   
    23    12    26 1   
    24    12    27 1   
    25    13    14 1   
    26    13    28 1   
    27    13    29 1   
    28    14    15 1   
    29    14    30 1   
    30    14    31 1   
    31    15    16 1   
    32    15    32 1   
    33    15    33 1   
    34    16    34 1   
    35    16    35 1   
@<TRIPOS>SUBSTRUCTURE
     1 NC4         1 TEMP              0 ****  ****    0 ROOT
