@<TRIPOS>MOLECULE
NC5
   85    89     1     0     0
SMALL
No Charge or Current Charge


@<TRIPOS>ATOM
      1 O39         -6.3610    -2.4380    -1.1320 o          1 NC5      -0.579600
      2 C9          -5.9430    -1.2870    -1.0940 c          1 NC5       0.609100
      3 C10         -6.8430    -0.1020    -1.4490 c3         1 NC5      -0.163400
      4 C13         -7.8420     0.1690    -0.3050 c3         1 NC5       0.182800
      5 N16         -8.9090     1.1640    -0.6270 n3         1 NC5      -0.736100
      6 C18         -9.9650     1.2790     0.4450 c6         1 NC5       0.195000
      7 C20        -10.6220    -0.0810     0.8650 c3         1 NC5      -0.091900
      8 C23        -11.2580    -0.9160    -0.2720 c3         1 NC5      -0.082600
      9 C27        -11.0790     2.2900     0.0360 c6         1 NC5      -0.072400
     10 C30        -10.4970     3.6750    -0.3080 c6         1 NC5      -0.074900
     11 C33         -9.4260     3.5220    -1.4010 c6         1 NC5      -0.075900
     12 C36         -8.3430     2.5080    -0.9690 c6         1 NC5       0.173300
     13 N7          -4.6370    -0.9380    -0.7740 ns         1 NC5      -0.150500
     14 C6          -3.5070    -1.7100    -0.3880 ca         1 NC5       0.006500
     15 C40         -3.5530    -3.1010    -0.1530 ca         1 NC5      -0.121500
     16 C42         -2.3930    -3.7930     0.2300 ca         1 NC5      -0.068500
     17 C4          -2.2830    -1.0330    -0.2270 ca         1 NC5      -0.179500
     18 C3          -1.1110    -1.7090     0.1540 ca         1 NC5       0.331500
     19 N1           0.0420    -1.0150     0.2930 nb         1 NC5      -0.685000
     20 C44         -1.1770    -3.1020     0.3820 ca         1 NC5      -0.116500
     21 C45         -0.0140    -3.7900     0.7640 ca         1 NC5      -0.023000
     22 C2           1.1770    -3.0610     0.9060 ca         1 NC5      -0.116500
     23 C47          2.3660    -3.7090     1.2850 ca         1 NC5      -0.068500
     24 C49          3.5550    -2.9760     1.4250 ca         1 NC5      -0.121500
     25 C51          3.5650    -1.5840     1.1890 ca         1 NC5       0.006500
     26 C85          2.3670    -0.9510     0.8060 ca         1 NC5      -0.179500
     27 C87          1.1680    -1.6680     0.6610 ca         1 NC5       0.331500
     28 N52          4.7270    -0.7730     1.3060 ns         1 NC5      -0.150500
     29 C54          6.0220    -1.0490     1.7270 c          1 NC5       0.609100
     30 O84          6.3970    -2.1400     2.1380 o          1 NC5      -0.579600
     31 C55          6.9680     0.1510     1.6800 c3         1 NC5      -0.163400
     32 C58          7.9690    -0.0060     0.5200 c3         1 NC5       0.182800
     33 N61          9.0250     1.0390     0.4830 n3         1 NC5      -0.736100
     34 C63         10.2080     0.6690    -0.3630 c6         1 NC5       0.195000
     35 C77          9.8600     0.4630    -1.8810 c3         1 NC5      -0.091900
     36 C80         11.0210    -0.0470    -2.7630 c3         1 NC5      -0.082600
     37 C66         11.3490     1.7030    -0.1340 c6         1 NC5      -0.072400
     38 C69         10.8930     3.1470    -0.4480 c6         1 NC5      -0.074900
     39 C72          9.6250     3.4860     0.3680 c6         1 NC5      -0.075900
     40 C75          8.5200     2.4160     0.1850 c6         1 NC5       0.173300
     41 H10         -6.2270     0.7880    -1.6140 hc         1 NC5       0.067700
     42 H10A        -7.4110    -0.3480    -2.3530 hc         1 NC5       0.067700
     43 H13         -8.2970    -0.8000    -0.0650 h1         1 NC5       0.047450
     44 H13A        -7.2850     0.4890     0.5860 h1         1 NC5       0.047450
     45 H18         -9.4920     1.6790     1.3550 h1         1 NC5       0.037700
     46 H20         -9.8910    -0.7060     1.3900 hc         1 NC5       0.040450
     47 H20A       -11.4010     0.1140     1.6120 hc         1 NC5       0.040450
     48 H23        -11.6460    -1.8610     0.1240 hc         1 NC5       0.033033
     49 H23A       -12.0920    -0.3800    -0.7390 hc         1 NC5       0.033033
     50 H23B       -10.5200    -1.1510    -1.0490 hc         1 NC5       0.033033
     51 H27        -11.6330     1.9100    -0.8330 hc         1 NC5       0.046700
     52 H27A       -11.8100     2.3950     0.8490 hc         1 NC5       0.046700
     53 H30        -11.2950     4.3490    -0.6490 hc         1 NC5       0.039450
     54 H30A       -10.0560     4.1300     0.5900 hc         1 NC5       0.039450
     55 H33         -9.8910     3.1860    -2.3380 hc         1 NC5       0.045200
     56 H33A        -8.9610     4.4950    -1.6110 hc         1 NC5       0.045200
     57 H36         -7.7950     2.9160    -0.1070 h1         1 NC5       0.026200
     58 H36A        -7.6270     2.4320    -1.7990 h1         1 NC5       0.026200
     59 HN7         -4.4540     0.0560    -0.8170 hn         1 NC5       0.152000
     60 H40         -4.4750    -3.6640    -0.2540 ha         1 NC5       0.149500
     61 H42         -2.4420    -4.8650     0.4080 ha         1 NC5       0.118000
     62 H4          -2.2350     0.0380    -0.4030 ha         1 NC5       0.127000
     63 H45         -0.0360    -4.8620     0.9460 ha         1 NC5       0.119000
     64 H47          2.3720    -4.7820     1.4700 ha         1 NC5       0.118000
     65 H49          4.4550    -3.5100     1.7130 ha         1 NC5       0.149500
     66 H85          2.3620     0.1190     0.6180 ha         1 NC5       0.127000
     67 HN52         4.5820     0.1870     1.0230 hn         1 NC5       0.152000
     68 H55          6.3910     1.0720     1.5420 hc         1 NC5       0.067700
     69 H55A         7.5320     0.1950     2.6180 hc         1 NC5       0.067700
     70 H58          8.4430    -0.9920     0.6210 h1         1 NC5       0.047450
     71 H58A         7.4080    -0.0150    -0.4250 h1         1 NC5       0.047450
     72 H63         10.5910    -0.3000    -0.0080 h1         1 NC5       0.037700
     73 H77          9.0510    -0.2700    -1.9760 hc         1 NC5       0.040450
     74 H77A         9.4770     1.3890    -2.3250 hc         1 NC5       0.040450
     75 H80         11.4650    -0.9530    -2.3340 hc         1 NC5       0.033033
     76 H80A        10.6550    -0.2880    -3.7680 hc         1 NC5       0.033033
     77 H80B        11.8050     0.7120    -2.8660 hc         1 NC5       0.033033
     78 H66         11.6680     1.6500     0.9160 hc         1 NC5       0.046700
     79 H66A        12.2380     1.4480    -0.7240 hc         1 NC5       0.046700
     80 H69         11.6960     3.8570    -0.2060 hc         1 NC5       0.039450
     81 H69A        10.6910     3.2590    -1.5220 hc         1 NC5       0.039450
     82 H72          9.8840     3.5570     1.4340 hc         1 NC5       0.045200
     83 H72A         9.2410     4.4720     0.0750 hc         1 NC5       0.045200
     84 H75          8.1270     2.4700    -0.8400 h1         1 NC5       0.026200
     85 H75A         7.6910     2.6820     0.8550 h1         1 NC5       0.026200
@<TRIPOS>BOND
     1     1     2 2   
     2     2     3 1   
     3     2    13 1   
     4     3     4 1   
     5     3    41 1   
     6     3    42 1   
     7     4     5 1   
     8     4    43 1   
     9     4    44 1   
    10     5     6 1   
    11     5    12 1   
    12     6     7 1   
    13     6     9 1   
    14     6    45 1   
    15     7     8 1   
    16     7    46 1   
    17     7    47 1   
    18     8    48 1   
    19     8    49 1   
    20     8    50 1   
    21     9    10 1   
    22     9    51 1   
    23     9    52 1   
    24    10    11 1   
    25    10    53 1   
    26    10    54 1   
    27    11    12 1   
    28    11    55 1   
    29    11    56 1   
    30    12    57 1   
    31    12    58 1   
    32    13    14 1   
    33    13    59 1   
    34    14    15 ar  
    35    14    17 ar  
    36    15    16 ar  
    37    15    60 1   
    38    16    20 ar  
    39    16    61 1   
    40    17    18 ar  
    41    17    62 1   
    42    18    19 ar  
    43    18    20 ar  
    44    19    27 ar  
    45    20    21 ar  
    46    21    22 ar  
    47    21    63 1   
    48    22    23 ar  
    49    22    27 ar  
    50    23    24 ar  
    51    23    64 1   
    52    24    25 ar  
    53    24    65 1   
    54    25    26 ar  
    55    25    28 1   
    56    26    27 ar  
    57    26    66 1   
    58    28    29 1   
    59    28    67 1   
    60    29    30 2   
    61    29    31 1   
    62    31    32 1   
    63    31    68 1   
    64    31    69 1   
    65    32    33 1   
    66    32    70 1   
    67    32    71 1   
    68    33    34 1   
    69    33    40 1   
    70    34    35 1   
    71    34    37 1   
    72    34    72 1   
    73    35    36 1   
    74    35    73 1   
    75    35    74 1   
    76    36    75 1   
    77    36    76 1   
    78    36    77 1   
    79    37    38 1   
    80    37    78 1   
    81    37    79 1   
    82    38    39 1   
    83    38    80 1   
    84    38    81 1   
    85    39    40 1   
    86    39    82 1   
    87    39    83 1   
    88    40    84 1   
    89    40    85 1   
@<TRIPOS>SUBSTRUCTURE
     1 NC5         1 TEMP              0 ****  ****    0 ROOT
