@<TRIPOS>MOLECULE
NC5
   85    89     1     0     0
SMALL
bcc


@<TRIPOS>ATOM
      1 O39         -6.4830    -1.9580     0.4110 o          1 NC5      -0.579600
      2 C9          -6.1310    -0.8820    -0.0350 c          1 NC5       0.676100
      3 C10         -7.1170     0.2020    -0.4070 c3         1 NC5      -0.163400
      4 C13         -8.3290     0.2270     0.5200 c3         1 NC5       0.182800
      5 N16         -9.3310     1.1720     0.0590 n3         1 NC5      -0.736100
      6 C18        -10.6970     0.8460     0.4730 c6         1 NC5       0.195000
      7 C20        -11.1250    -0.5690     0.0610 c3         1 NC5      -0.091900
      8 C23        -10.8540    -0.9300    -1.3950 c3         1 NC5      -0.082600
      9 C27        -11.6750     1.8690    -0.1100 c6         1 NC5      -0.072400
     10 C30        -11.3100     3.2980     0.2570 c6         1 NC5      -0.074900
     11 C33         -9.8730     3.5750    -0.1540 c6         1 NC5      -0.075900
     12 C36         -8.9550     2.5250     0.4440 c6         1 NC5       0.173300
     13 N7          -4.8310    -0.5520    -0.2770 ns         1 NC5      -0.476600
     14 C6          -3.6780    -1.3190    -0.1180 ca         1 NC5       0.099100
     15 C40         -3.7150    -2.7430    -0.0020 ca         1 NC5      -0.139500
     16 C42         -2.5550    -3.4410     0.1120 ca         1 NC5      -0.086500
     17 C4          -2.4740    -0.6640    -0.1180 ca         1 NC5      -0.262800
     18 C3          -1.2490    -1.3680    -0.0010 ca         1 NC5       0.462100
     19 N1          -0.1080    -0.6790    -0.0030 nb         1 NC5      -0.685000
     20 C44         -1.2930    -2.7920     0.1210 ca         1 NC5      -0.181800
     21 C45         -0.0900    -3.4740     0.2370 ca         1 NC5      -0.041000
     22 C2           1.1040    -2.7660     0.2380 ca         1 NC5      -0.181800
     23 C47          2.3740    -3.3870     0.3550 ca         1 NC5      -0.086500
     24 C49          3.5250    -2.6640     0.3590 ca         1 NC5      -0.139500
     25 C51          3.4700    -1.2400     0.2410 ca         1 NC5       0.099100
     26 C85          2.2560    -0.6120     0.1190 ca         1 NC5      -0.262800
     27 C87          1.0430    -1.3430     0.1130 ca         1 NC5       0.462100
     28 N52          4.6120    -0.4420     0.2270 ns         1 NC5      -0.476600
     29 C54          5.9130    -0.7700     0.4640 c          1 NC5       0.676100
     30 O84          6.2930    -1.9010     0.7060 o          1 NC5      -0.579600
     31 C55          6.8610     0.4080     0.4310 c3         1 NC5      -0.163400
     32 C58          8.2490     0.0070    -0.0590 c3         1 NC5       0.182800
     33 N61          9.1870     1.1080     0.0170 n3         1 NC5      -0.736100
     34 C63         10.5690     0.6800     0.2370 c6         1 NC5       0.195000
     35 C77         11.1450    -0.2030    -0.8830 c3         1 NC5      -0.091900
     36 C80         12.5090    -0.7920    -0.5480 c3         1 NC5      -0.082600
     37 C66         11.4230     1.9120     0.5340 c6         1 NC5      -0.072400
     38 C69         11.3300     2.9560    -0.5720 c6         1 NC5      -0.074900
     39 C72          9.8710     3.3110    -0.8240 c6         1 NC5      -0.075900
     40 C75          9.0430     2.0580    -1.0730 c6         1 NC5       0.173300
     41 H10         -6.6220     1.1750    -0.4500 hc         1 NC5       0.067700
     42 H10A        -7.4600    -0.0100    -1.4250 hc         1 NC5       0.067700
     43 H13         -8.7480    -0.7760     0.5400 h1         1 NC5       0.047450
     44 H13A        -8.0070     0.4450     1.5520 h1         1 NC5       0.047450
     45 H18        -10.7870     0.9030     1.5750 h1         1 NC5       0.037700
     46 H20        -10.6640    -1.3170     0.7110 hc         1 NC5       0.040450
     47 H20A       -12.1970    -0.6470     0.2600 hc         1 NC5       0.040450
     48 H23        -11.2770    -1.9070    -1.6300 hc         1 NC5       0.033033
     49 H23A       -11.2980    -0.2100    -2.0830 hc         1 NC5       0.033033
     50 H23B        -9.7870    -0.9750    -1.6120 hc         1 NC5       0.033033
     51 H27        -11.6940     1.7710    -1.2000 hc         1 NC5       0.046700
     52 H27A       -12.6790     1.6280     0.2470 hc         1 NC5       0.046700
     53 H30        -11.9980     4.0030    -0.2150 hc         1 NC5       0.039450
     54 H30A       -11.4110     3.4350     1.3390 hc         1 NC5       0.039450
     55 H33         -9.7840     3.5590    -1.2440 hc         1 NC5       0.045200
     56 H33A        -9.5510     4.5650     0.1800 hc         1 NC5       0.045200
     57 H36         -8.9540     2.6340     1.5440 h1         1 NC5       0.026200
     58 H36A        -7.9310     2.7130     0.1170 h1         1 NC5       0.026200
     59 HN7         -4.6650     0.4030    -0.5570 hn         1 NC5       0.318500
     60 H40         -4.6540    -3.2700    -0.0130 ha         1 NC5       0.167500
     61 H42         -2.5860    -4.5210     0.1910 ha         1 NC5       0.136000
     62 H4          -2.4320     0.4150    -0.2070 ha         1 NC5       0.145000
     63 H45         -0.0820    -4.5550     0.3270 ha         1 NC5       0.137000
     64 H47          2.4210    -4.4650     0.4420 ha         1 NC5       0.136000
     65 H49          4.4710    -3.1690     0.4500 ha         1 NC5       0.167500
     66 H85          2.1990     0.4670     0.0300 ha         1 NC5       0.145000
     67 HN52         4.4340     0.5370     0.0590 hn         1 NC5       0.318500
     68 H55          6.4480     1.2180    -0.1740 hc         1 NC5       0.067700
     69 H55A         6.9410     0.7970     1.4520 hc         1 NC5       0.067700
     70 H58          8.6150    -0.8000     0.5770 h1         1 NC5       0.047450
     71 H58A         8.1670    -0.4110    -1.0740 h1         1 NC5       0.047450
     72 H63         10.5600     0.0650     1.1460 h1         1 NC5       0.037700
     73 H77         10.4490    -1.0270    -1.0670 hc         1 NC5       0.040450
     74 H77A        11.2060     0.3500    -1.8240 hc         1 NC5       0.040450
     75 H80         12.4930    -1.2950     0.4210 hc         1 NC5       0.033033
     76 H80A        12.8100    -1.5290    -1.2940 hc         1 NC5       0.033033
     77 H80B        13.2910    -0.0330    -0.5110 hc         1 NC5       0.033033
     78 H66         11.0700     2.3530     1.4720 hc         1 NC5       0.046700
     79 H66A        12.4600     1.6170     0.7050 hc         1 NC5       0.046700
     80 H69         11.9000     3.8470    -0.2990 hc         1 NC5       0.039450
     81 H69A        11.7810     2.5730    -1.4940 hc         1 NC5       0.039450
     82 H72          9.4670     3.8380     0.0450 hc         1 NC5       0.045200
     83 H72A         9.7750     3.9830    -1.6790 hc         1 NC5       0.045200
     84 H75          9.3240     1.6220    -2.0460 h1         1 NC5       0.026200
     85 H75A         7.9910     2.3390    -1.1600 h1         1 NC5       0.026200
@<TRIPOS>BOND
     1     1     2 2   
     2     2     3 1   
     3     2    13 1   
     4     3     4 1   
     5     3    41 1   
     6     3    42 1   
     7     4     5 1   
     8     4    43 1   
     9     4    44 1   
    10     5     6 1   
    11     5    12 1   
    12     6     7 1   
    13     6     9 1   
    14     6    45 1   
    15     7     8 1   
    16     7    46 1   
    17     7    47 1   
    18     8    48 1   
    19     8    49 1   
    20     8    50 1   
    21     9    10 1   
    22     9    51 1   
    23     9    52 1   
    24    10    11 1   
    25    10    53 1   
    26    10    54 1   
    27    11    12 1   
    28    11    55 1   
    29    11    56 1   
    30    12    57 1   
    31    12    58 1   
    32    13    14 1   
    33    13    59 1   
    34    14    15 ar  
    35    14    17 ar  
    36    15    16 ar  
    37    15    60 1   
    38    16    20 ar  
    39    16    61 1   
    40    17    18 ar  
    41    17    62 1   
    42    18    19 ar  
    43    18    20 ar  
    44    19    27 ar  
    45    20    21 ar  
    46    21    22 ar  
    47    21    63 1   
    48    22    23 ar  
    49    22    27 ar  
    50    23    24 ar  
    51    23    64 1   
    52    24    25 ar  
    53    24    65 1   
    54    25    26 ar  
    55    25    28 1   
    56    26    27 ar  
    57    26    66 1   
    58    28    29 1   
    59    28    67 1   
    60    29    30 2   
    61    29    31 1   
    62    31    32 1   
    63    31    68 1   
    64    31    69 1   
    65    32    33 1   
    66    32    70 1   
    67    32    71 1   
    68    33    34 1   
    69    33    40 1   
    70    34    35 1   
    71    34    37 1   
    72    34    72 1   
    73    35    36 1   
    74    35    73 1   
    75    35    74 1   
    76    36    75 1   
    77    36    76 1   
    78    36    77 1   
    79    37    38 1   
    80    37    78 1   
    81    37    79 1   
    82    38    39 1   
    83    38    80 1   
    84    38    81 1   
    85    39    40 1   
    86    39    82 1   
    87    39    83 1   
    88    40    84 1   
    89    40    85 1   
@<TRIPOS>SUBSTRUCTURE
     1 NC5         1 TEMP              0 ****  ****    0 ROOT
