@<TRIPOS>MOLECULE
NC6
   41    41     1     0     0
SMALL
No Charge or Current Charge


@<TRIPOS>ATOM
      1 C1          -4.1820     0.0680     0.2530 c6         1 NC6       0.122700
      2 N2          -2.7500     0.3450     0.0990 ns         1 NC6      -0.522900
      3 C3          -1.7360    -0.4820     0.4960 c          1 NC6       0.644100
      4 N4          -0.5010     0.0250     0.2060 ns         1 NC6      -0.512900
      5 C5           0.7560    -0.6510     0.5200 c3         1 NC6       0.105000
      6 C6           1.9740     0.1670     0.0500 c3         1 NC6      -0.092400
      7 C7           3.3190    -0.5230     0.3680 c3         1 NC6      -0.078400
      8 C8           4.5440     0.2940    -0.1010 c3         1 NC6      -0.053400
      9 C9           5.8940    -0.3960     0.2170 c3         1 NC6      -0.205400
     10 O10         -1.9140    -1.5530     1.0520 o          1 NC6      -0.651100
     11 C11          7.0640     0.4730    -0.2770 c          1 NC6       0.717000
     12 O12          7.4560     0.3150    -1.4240 o          1 NC6      -0.743000
     13 O13          7.5190     1.3150     0.4820 o          1 NC6      -0.743000
     14 C14         -4.9830     1.3960     0.2660 c6         1 NC6      -0.092400
     15 C15         -6.5050     1.1390     0.3940 c6         1 NC6      -0.070900
     16 C16         -7.0120     0.2140    -0.7400 c6         1 NC6      -0.076400
     17 C17         -6.2110    -1.1100    -0.7810 c6         1 NC6      -0.070900
     18 C18         -4.6900    -0.8390    -0.9000 c6         1 NC6      -0.092400
     19 H1          -4.3390    -0.4500     1.2130 h1         1 NC6       0.081700
     20 HN2         -2.4810     1.2100    -0.3490 hn         1 NC6       0.295500
     21 HN4         -0.4640     0.9240    -0.2560 hn         1 NC6       0.296500
     22 H51          0.7620    -1.6340     0.0290 h1         1 NC6       0.047200
     23 H52          0.8130    -0.8060     1.6050 h1         1 NC6       0.047200
     24 H61          1.9520     1.1530     0.5310 hc         1 NC6       0.039200
     25 H62          1.9000     0.3330    -1.0320 hc         1 NC6       0.039200
     26 H71          3.3380    -1.5100    -0.1110 hc         1 NC6       0.028200
     27 H72          3.3900    -0.6900     1.4500 hc         1 NC6       0.028200
     28 H81          4.5230     1.2810     0.3780 hc         1 NC6       0.038700
     29 H82          4.4720     0.4630    -1.1830 hc         1 NC6       0.038700
     30 H91          5.8740    -1.3540    -0.3180 hc         1 NC6       0.015700
     31 H92          5.9280    -0.5000     1.3090 hc         1 NC6       0.015700
     32 H141        -4.6460     2.0250     1.1010 hc         1 NC6       0.043950
     33 H142        -4.7820     1.9640    -0.6540 hc         1 NC6       0.043950
     34 H151        -6.7230     0.6820     1.3700 hc         1 NC6       0.039450
     35 H152        -7.0490     2.0930     0.3680 hc         1 NC6       0.039450
     36 H161        -8.0800     0.0000    -0.5980 hc         1 NC6       0.035200
     37 H162        -6.9230     0.7310    -1.7060 hc         1 NC6       0.035200
     38 H171        -6.4120    -1.6930     0.1280 hc         1 NC6       0.039450
     39 H172        -6.5480    -1.7240    -1.6270 hc         1 NC6       0.039450
     40 H181        -4.4740    -0.3680    -1.8690 hc         1 NC6       0.043950
     41 H182        -4.1470    -1.7940    -0.8910 hc         1 NC6       0.043950
@<TRIPOS>BOND
     1     1     2 1   
     2     1    14 1   
     3     1    18 1   
     4     1    19 1   
     5     2     3 1   
     6     2    20 1   
     7     3     4 1   
     8     3    10 2   
     9     4     5 1   
    10     4    21 1   
    11     5     6 1   
    12     5    22 1   
    13     5    23 1   
    14     6     7 1   
    15     6    24 1   
    16     6    25 1   
    17     7     8 1   
    18     7    26 1   
    19     7    27 1   
    20     8     9 1   
    21     8    28 1   
    22     8    29 1   
    23     9    11 1   
    24     9    30 1   
    25     9    31 1   
    26    11    12 1   
    27    11    13 1   
    28    14    15 1   
    29    14    32 1   
    30    14    33 1   
    31    15    16 1   
    32    15    34 1   
    33    15    35 1   
    34    16    17 1   
    35    16    36 1   
    36    16    37 1   
    37    17    18 1   
    38    17    38 1   
    39    17    39 1   
    40    18    40 1   
    41    18    41 1   
@<TRIPOS>SUBSTRUCTURE
     1 NC6         1 TEMP              0 ****  ****    0 ROOT
