@<TRIPOS>MOLECULE
NC6
   41    41     1     0     0
SMALL
abcg2


@<TRIPOS>ATOM
      1 C1          -4.1300     0.1840     0.2170 c6         1 NC6       0.122700
      2 N2          -2.7560     0.5800    -0.0150 ns         1 NC6      -0.522900
      3 C3          -1.7040    -0.1910     0.3740 c          1 NC6       0.644100
      4 N4          -0.4860     0.2340    -0.0580 ns         1 NC6      -0.512900
      5 C5           0.7110    -0.5550     0.1380 c3         1 NC6       0.105000
      6 C6           1.9590     0.2960    -0.0330 c3         1 NC6      -0.092400
      7 C7           3.2350    -0.5150     0.1530 c3         1 NC6      -0.078400
      8 C8           4.5000     0.3200    -0.0030 c3         1 NC6      -0.053400
      9 C9           5.7680    -0.4960     0.1880 c3         1 NC6      -0.205400
     10 O10         -1.8360    -1.1710     1.1030 o          1 NC6      -0.651100
     11 C11          7.0950     0.2730     0.0620 c          1 NC6       0.717000
     12 O12          8.1350    -0.4060     0.2050 o          1 NC6      -0.743000
     13 O13          7.0420     1.4980    -0.1640 o          1 NC6      -0.743000
     14 C14         -5.0220     1.4190     0.2860 c6         1 NC6      -0.092400
     15 C15         -6.4770     1.0390     0.5440 c6         1 NC6      -0.070900
     16 C16         -6.9920     0.0460    -0.4930 c6         1 NC6      -0.076400
     17 C17         -6.0950    -1.1840    -0.5710 c6         1 NC6      -0.070900
     18 C18         -4.6440    -0.7960    -0.8380 c6         1 NC6      -0.092400
     19 H1          -4.1610    -0.3130     1.1910 h1         1 NC6       0.081700
     20 HN2         -2.6050     1.2820    -0.7240 hn         1 NC6       0.295500
     21 HN4         -0.4510     0.9220    -0.7940 hn         1 NC6       0.296500
     22 H51          0.7480    -1.4020    -0.5590 h1         1 NC6       0.047200
     23 H52          0.6940    -0.9770     1.1430 h1         1 NC6       0.047200
     24 H61          1.9360     1.1210     0.6870 hc         1 NC6       0.039200
     25 H62          1.9620     0.7530    -1.0290 hc         1 NC6       0.039200
     26 H71          3.2490    -1.3390    -0.5690 hc         1 NC6       0.028200
     27 H72          3.2260    -0.9820     1.1440 hc         1 NC6       0.028200
     28 H81          4.4790     1.1440     0.7160 hc         1 NC6       0.038700
     29 H82          4.5050     0.7860    -0.9930 hc         1 NC6       0.038700
     30 H91          5.7850    -1.3250    -0.5300 hc         1 NC6       0.015700
     31 H92          5.7490    -0.9800     1.1730 hc         1 NC6       0.015700
     32 H141        -4.6600     2.0920     1.0680 hc         1 NC6       0.043950
     33 H142        -4.9540     1.9710    -0.6590 hc         1 NC6       0.043950
     34 H151        -6.5640     0.6000     1.5440 hc         1 NC6       0.039450
     35 H152        -7.0980     1.9380     0.5490 hc         1 NC6       0.039450
     36 H161        -8.0180    -0.2470    -0.2560 hc         1 NC6       0.035200
     37 H162        -7.0260     0.5330    -1.4740 hc         1 NC6       0.035200
     38 H171        -6.1520    -1.7370     0.3740 hc         1 NC6       0.039450
     39 H172        -6.4490    -1.8670    -1.3470 hc         1 NC6       0.039450
     40 H181        -4.5630    -0.3300    -1.8270 hc         1 NC6       0.043950
     41 H182        -4.0070    -1.6840    -0.8530 hc         1 NC6       0.043950
@<TRIPOS>BOND
     1     1     2 1   
     2     1    14 1   
     3     1    18 1   
     4     1    19 1   
     5     2     3 1   
     6     2    20 1   
     7     3     4 1   
     8     3    10 2   
     9     4     5 1   
    10     4    21 1   
    11     5     6 1   
    12     5    22 1   
    13     5    23 1   
    14     6     7 1   
    15     6    24 1   
    16     6    25 1   
    17     7     8 1   
    18     7    26 1   
    19     7    27 1   
    20     8     9 1   
    21     8    28 1   
    22     8    29 1   
    23     9    11 1   
    24     9    30 1   
    25     9    31 1   
    26    11    12 1   
    27    11    13 1   
    28    14    15 1   
    29    14    32 1   
    30    14    33 1   
    31    15    16 1   
    32    15    34 1   
    33    15    35 1   
    34    16    17 1   
    35    16    36 1   
    36    16    37 1   
    37    17    18 1   
    38    17    38 1   
    39    17    39 1   
    40    18    40 1   
    41    18    41 1   
@<TRIPOS>SUBSTRUCTURE
     1 NC6         1 TEMP              0 ****  ****    0 ROOT
