@<TRIPOS>MOLECULE
NC7
   44    44     1     0     0
SMALL
No Charge or Current Charge


@<TRIPOS>ATOM
      1 C1          -4.4200    -0.1950    -0.0520 c6         1 NC7       0.119700
      2 N2          -3.2420    -0.2080     0.8220 ns         1 NC7      -0.517900
      3 C3          -2.0470     0.3980     0.5490 c          1 NC7       0.649100
      4 N4          -1.1380     0.2360     1.5580 ns         1 NC7      -0.522900
      5 C5           0.2340     0.7470     1.5310 c3         1 NC7       0.107000
      6 C6           1.1740    -0.1520     0.7000 c3         1 NC7      -0.093400
      7 C7           2.6310     0.3580     0.6820 c3         1 NC7      -0.074400
      8 C8           3.5760    -0.5400    -0.1470 c3         1 NC7      -0.078400
      9 C9           5.0340    -0.0310    -0.1650 c3         1 NC7      -0.054400
     10 O10         -1.8210     1.0150    -0.4780 o          1 NC7      -0.648100
     11 C11          5.9840    -0.9290    -0.9940 c3         1 NC7      -0.204400
     12 C12          7.4150    -0.3610    -0.9640 c          1 NC7       0.717000
     13 O13          8.1570    -0.7150    -0.0610 o          1 NC7      -0.743000
     14 O14          7.7300     0.4540    -1.8180 o          1 NC7      -0.743000
     15 C15         -5.3230    -1.4180     0.2540 c6         1 NC7      -0.091900
     16 C16         -6.5960    -1.4170    -0.6300 c6         1 NC7      -0.070900
     17 C17         -7.3930    -0.1020    -0.4600 c6         1 NC7      -0.076400
     18 C18         -6.5020     1.1320    -0.7420 c6         1 NC7      -0.070900
     19 C19         -5.2290     1.1160     0.1410 c6         1 NC7      -0.091900
     20 H1          -4.0820    -0.2570    -1.0980 h1         1 NC7       0.082700
     21 HN2         -3.3140    -0.6930     1.7050 hn         1 NC7       0.292500
     22 HN4         -1.4370    -0.2920     2.3670 hn         1 NC7       0.297500
     23 H51          0.6040     0.8050     2.5640 h1         1 NC7       0.052200
     24 H52          0.2310     1.7640     1.1160 h1         1 NC7       0.052200
     25 H61          0.8000    -0.2120    -0.3290 hc         1 NC7       0.037700
     26 H62          1.1520    -1.1690     1.1110 hc         1 NC7       0.037700
     27 H71          3.0040     0.4190     1.7120 hc         1 NC7       0.037200
     28 H72          2.6510     1.3760     0.2730 hc         1 NC7       0.037200
     29 H81          3.2020    -0.6000    -1.1770 hc         1 NC7       0.024200
     30 H82          3.5540    -1.5580     0.2620 hc         1 NC7       0.024200
     31 H91          5.4060     0.0310     0.8660 hc         1 NC7       0.038700
     32 H92          5.0550     0.9880    -0.5720 hc         1 NC7       0.038700
     33 H111         5.5880    -0.9200    -2.0180 hc         1 NC7       0.014200
     34 H112         5.9530    -1.9180    -0.5190 hc         1 NC7       0.014200
     35 H151        -4.7610    -2.3460     0.0860 hc         1 NC7       0.043700
     36 H152        -5.6130    -1.4150     1.3140 hc         1 NC7       0.043700
     37 H161        -6.3150    -1.5460    -1.6850 hc         1 NC7       0.040450
     38 H162        -7.2320    -2.2750    -0.3700 hc         1 NC7       0.040450
     39 H171        -8.2600    -0.0990    -1.1350 hc         1 NC7       0.035700
     40 H172        -7.7940    -0.0420     0.5620 hc         1 NC7       0.035700
     41 H181        -6.2160     1.1470    -1.8030 hc         1 NC7       0.040450
     42 H182        -7.0710     2.0530    -0.5590 hc         1 NC7       0.040450
     43 H191        -5.5120     1.2280     1.1970 hc         1 NC7       0.043700
     44 H192        -4.6010     1.9830    -0.1070 hc         1 NC7       0.043700
@<TRIPOS>BOND
     1     1     2 1   
     2     1    15 1   
     3     1    19 1   
     4     1    20 1   
     5     2     3 1   
     6     2    21 1   
     7     3     4 1   
     8     3    10 2   
     9     4     5 1   
    10     4    22 1   
    11     5     6 1   
    12     5    23 1   
    13     5    24 1   
    14     6     7 1   
    15     6    25 1   
    16     6    26 1   
    17     7     8 1   
    18     7    27 1   
    19     7    28 1   
    20     8     9 1   
    21     8    29 1   
    22     8    30 1   
    23     9    11 1   
    24     9    31 1   
    25     9    32 1   
    26    11    12 1   
    27    11    33 1   
    28    11    34 1   
    29    12    13 1   
    30    12    14 1   
    31    15    16 1   
    32    15    35 1   
    33    15    36 1   
    34    16    17 1   
    35    16    37 1   
    36    16    38 1   
    37    17    18 1   
    38    17    39 1   
    39    17    40 1   
    40    18    19 1   
    41    18    41 1   
    42    18    42 1   
    43    19    43 1   
    44    19    44 1   
@<TRIPOS>SUBSTRUCTURE
     1 NC7         1 TEMP              0 ****  ****    0 ROOT
