@<TRIPOS>MOLECULE
NC7
   44    44     1     0     0
SMALL
bcc


@<TRIPOS>ATOM
      1 C1          -4.6670    -0.1780    -0.2030 c6         1 NC7       0.119700
      2 N2          -3.3380    -0.5540     0.2370 ns         1 NC7      -0.584900
      3 C3          -2.2350     0.1630    -0.1140 c          1 NC7       0.783100
      4 N4          -1.0940    -0.1850     0.5380 ns         1 NC7      -0.589900
      5 C5           0.1570     0.5180     0.3740 c3         1 NC7       0.107000
      6 C6           1.3450    -0.4330     0.3250 c3         1 NC7      -0.093400
      7 C7           2.6650     0.3130     0.1760 c3         1 NC7      -0.074400
      8 C8           3.8740    -0.6120     0.1320 c3         1 NC7      -0.078400
      9 C9           5.1940     0.1330    -0.0280 c3         1 NC7      -0.054400
     10 O10         -2.2630     1.0290    -0.9850 o          1 NC7      -0.648100
     11 C11          6.3920    -0.8010    -0.0690 c3         1 NC7      -0.204400
     12 C12          7.7700    -0.1370    -0.2410 c          1 NC7       0.927600
     13 O13          8.7530    -0.9080    -0.2270 o          1 NC7      -0.848300
     14 O14          7.8090     1.1010    -0.3830 o          1 NC7      -0.848300
     15 C15         -5.5920    -1.3910    -0.1620 c6         1 NC7      -0.091900
     16 C16         -6.9950    -1.0270    -0.6380 c6         1 NC7      -0.070900
     17 C17         -7.5820     0.1320     0.1630 c6         1 NC7      -0.076400
     18 C18         -6.6520     1.3400     0.1410 c6         1 NC7      -0.070900
     19 C19         -5.2530     0.9700     0.6210 c6         1 NC7      -0.091900
     20 H1          -4.5840     0.1490    -1.2430 h1         1 NC7       0.082700
     21 HN2         -3.2900    -1.1310     1.0630 hn         1 NC7       0.292500
     22 HN4         -1.1540    -0.8270     1.3130 hn         1 NC7       0.297500
     23 H51          0.3030     1.2410     1.1850 h1         1 NC7       0.052200
     24 H52          0.1080     1.0900    -0.5510 h1         1 NC7       0.052200
     25 H61          1.2150    -1.1300    -0.5090 hc         1 NC7       0.037700
     26 H62          1.3690    -1.0400     1.2370 hc         1 NC7       0.037700
     27 H71          2.7800     1.0190     1.0060 hc         1 NC7       0.037200
     28 H72          2.6390     0.9190    -0.7360 hc         1 NC7       0.037200
     29 H81          3.7540    -1.3240    -0.6930 hc         1 NC7       0.024200
     30 H82          3.9010    -1.2160     1.0470 hc         1 NC7       0.024200
     31 H91          5.3070     0.8460     0.7950 hc         1 NC7       0.038700
     32 H92          5.1610     0.7330    -0.9420 hc         1 NC7       0.038700
     33 H111         6.2630    -1.5240    -0.8840 hc         1 NC7       0.014200
     34 H112         6.4160    -1.4100     0.8430 hc         1 NC7       0.014200
     35 H151        -5.1770    -2.1930    -0.7770 hc         1 NC7       0.043700
     36 H152        -5.6420    -1.7730     0.8650 hc         1 NC7       0.043700
     37 H161        -6.9550    -0.7480    -1.6960 hc         1 NC7       0.040450
     38 H162        -7.6470    -1.9010    -0.5740 hc         1 NC7       0.040450
     39 H171        -8.5640     0.4010    -0.2330 hc         1 NC7       0.035700
     40 H172        -7.7420    -0.1860     1.1990 hc         1 NC7       0.035700
     41 H181        -6.5910     1.7310    -0.8820 hc         1 NC7       0.040450
     42 H182        -7.0580     2.1470     0.7550 hc         1 NC7       0.040450
     43 H191        -5.2940     0.6610     1.6720 hc         1 NC7       0.043700
     44 H192        -4.5880     1.8360     0.5710 hc         1 NC7       0.043700
@<TRIPOS>BOND
     1     1     2 1   
     2     1    15 1   
     3     1    19 1   
     4     1    20 1   
     5     2     3 1   
     6     2    21 1   
     7     3     4 1   
     8     3    10 2   
     9     4     5 1   
    10     4    22 1   
    11     5     6 1   
    12     5    23 1   
    13     5    24 1   
    14     6     7 1   
    15     6    25 1   
    16     6    26 1   
    17     7     8 1   
    18     7    27 1   
    19     7    28 1   
    20     8     9 1   
    21     8    29 1   
    22     8    30 1   
    23     9    11 1   
    24     9    31 1   
    25     9    32 1   
    26    11    12 1   
    27    11    33 1   
    28    11    34 1   
    29    12    13 1   
    30    12    14 1   
    31    15    16 1   
    32    15    35 1   
    33    15    36 1   
    34    16    17 1   
    35    16    37 1   
    36    16    38 1   
    37    17    18 1   
    38    17    39 1   
    39    17    40 1   
    40    18    19 1   
    41    18    41 1   
    42    18    42 1   
    43    19    43 1   
    44    19    44 1   
@<TRIPOS>SUBSTRUCTURE
     1 NC7         1 TEMP              0 ****  ****    0 ROOT
