@<TRIPOS>MOLECULE
NC8
   72    75     1     0     0
SMALL
abcg2


@<TRIPOS>ATOM
      1 C1           0.2690     2.6710     3.3340 c3         1 NC8       0.148800
      2 N1          -0.9400     3.4030     2.8430 ny         1 NC8      -0.818000
      3 O1          -4.0570    -1.6860     1.8550 o          1 NC8      -0.577100
      4 BR1          8.6950     2.4900    -1.3700 br         1 NC8      -0.060100
      5 C2          -2.1670     2.5850     2.6560 c3         1 NC8       0.095600
      6 N2          -3.5480    -0.0690     0.3660 n          1 NC8      -0.425800
      7 O2           2.3680     0.6470     0.2600 os         1 NC8      -0.455100
      8 C3          -2.0670     1.5420     1.5550 c3         1 NC8      -0.094700
      9 N3          -6.8390     4.5130    -2.6960 nv         1 NC8      -1.063000
     10 O3           2.7430    -0.9060    -1.2990 o          1 NC8      -0.466000
     11 C4          -3.4740     0.9470     1.3960 c3         1 NC8       0.097000
     12 N4          -4.8580    -7.6740     1.4810 nv         1 NC8      -1.064000
     13 C5          -3.2810     0.3910    -0.9890 c3         1 NC8       0.156300
     14 C6          -4.2170     1.4880    -1.4220 ca         1 NC8      -0.182300
     15 C7          -3.8400    -1.3540     0.7020 c          1 NC8       0.600100
     16 C8          -4.1430    -3.7690     0.0860 ca         1 NC8      -0.137300
     17 C9          -1.0220     0.4590     1.8400 c3         1 NC8      -0.075200
     18 C10          0.3900     0.9110     1.5820 c2         1 NC8      -0.037400
     19 C11          1.0600     0.1470     0.4870 c3         1 NC8       0.191800
     20 C12          3.1150     0.0430    -0.6540 c          1 NC8       0.613700
     21 C13          4.4550     0.6640    -0.7950 ca         1 NC8      -0.141600
     22 C14          0.9600     1.9110     2.2470 c2         1 NC8      -0.287200
     23 C15          5.3540     0.0890    -1.6900 ca         1 NC8      -0.054500
     24 C16          6.6180     0.6250    -1.8660 ca         1 NC8      -0.096500
     25 C17          6.9790     1.7500    -1.1380 ca         1 NC8       0.012100
     26 C18          6.0990     2.3400    -0.2420 ca         1 NC8      -0.096500
     27 C19          4.8370     1.7920    -0.0730 ca         1 NC8      -0.054500
     28 C20         -3.7440     2.7470    -1.7680 ca         1 NC8      -0.057000
     29 C21         -4.6020     3.7580    -2.1740 ca         1 NC8      -0.181000
     30 C22         -5.9810     3.5360    -2.2410 ca         1 NC8       0.313000
     31 C23         -6.4620     2.2680    -1.8840 ca         1 NC8      -0.181000
     32 C24         -5.5920     1.2700    -1.4840 ca         1 NC8      -0.057000
     33 C25         -3.0950    -4.6520     0.3230 ca         1 NC8      -0.049500
     34 C26         -3.3180    -5.9330     0.8010 ca         1 NC8      -0.175500
     35 C27         -4.6170    -6.3810     1.0610 ca         1 NC8       0.304000
     36 C28         -5.6750    -5.4940     0.8240 ca         1 NC8      -0.175500
     37 C29         -5.4340    -4.2170     0.3470 ca         1 NC8      -0.049500
     38 C30         -3.8850    -2.3820    -0.4230 c3         1 NC8      -0.089100
     39 H11          0.9290     3.4260     3.7520 hx         1 NC8       0.098700
     40 H21         -0.0680     2.0360     4.1560 hx         1 NC8       0.098700
     41 H1N1        -1.1630     4.1390     3.5150 hn         1 NC8       0.499500
     42 H2N1        -0.7110     3.8950     1.9780 hn         1 NC8       0.499500
     43 H12         -2.3780     2.1230     3.6200 hx         1 NC8       0.097700
     44 H22         -2.9660     3.2930     2.4410 hx         1 NC8       0.097700
     45 H3          -1.7990     2.0540     0.6240 hc         1 NC8       0.070700
     46 H1N3        -6.5160     5.4620    -2.5980 hn         1 NC8       0.457500
     47 H2N3        -7.8020     4.4160    -2.4190 hn         1 NC8       0.457500
     48 H14         -4.1730     1.7510     1.1530 h1         1 NC8       0.074200
     49 H24         -3.7990     0.5100     2.3380 h1         1 NC8       0.074200
     50 H1N4        -4.0800    -8.1380     1.9230 hn         1 NC8       0.451000
     51 H2N4        -5.7100    -7.8070     2.0020 hn         1 NC8       0.451000
     52 H15         -2.2470     0.7460    -1.0600 h1         1 NC8       0.052200
     53 H25         -3.3460    -0.4470    -1.6770 h1         1 NC8       0.052200
     54 H19         -1.1260     0.1050     2.8710 hc         1 NC8       0.088700
     55 H29         -1.2370    -0.4080     1.2110 hc         1 NC8       0.088700
     56 H111         0.4600     0.2200    -0.4280 h1         1 NC8       0.078700
     57 H211         1.0960    -0.9130     0.7590 h1         1 NC8       0.078700
     58 H14A         1.9710     2.2240     2.0270 ha         1 NC8       0.228000
     59 H15A         5.0720    -0.7890    -2.2550 ha         1 NC8       0.130000
     60 H16          7.3040     0.1650    -2.5640 ha         1 NC8       0.141000
     61 H18          6.3800     3.2180     0.3230 ha         1 NC8       0.141000
     62 H19A         4.1630     2.2640     0.6280 ha         1 NC8       0.130000
     63 H20         -2.6800     2.9510    -1.7260 ha         1 NC8       0.106500
     64 H21A        -4.2010     4.7280    -2.4420 ha         1 NC8       0.121500
     65 H23         -7.5270     2.0690    -1.9230 ha         1 NC8       0.121500
     66 H24A        -5.9990     0.3020    -1.2100 ha         1 NC8       0.106500
     67 H25A        -2.0760    -4.3350     0.1320 ha         1 NC8       0.104500
     68 H26         -2.4770    -6.5950     0.9730 ha         1 NC8       0.117000
     69 H28         -6.6930    -5.8140     1.0130 ha         1 NC8       0.117000
     70 H29A        -6.2770    -3.5580     0.1730 ha         1 NC8       0.104500
     71 H130        -4.6570    -2.0980    -1.1450 hc         1 NC8       0.066700
     72 H230        -2.9420    -2.3640    -0.9760 hc         1 NC8       0.066700
@<TRIPOS>BOND
     1     1     2 1   
     2     1    22 1   
     3     1    39 1   
     4     1    40 1   
     5     2     5 1   
     6     2    41 1   
     7     2    42 1   
     8     3    15 2   
     9     4    25 1   
    10     5     8 1   
    11     5    43 1   
    12     5    44 1   
    13     6    11 1   
    14     6    13 1   
    15     6    15 1   
    16     7    19 1   
    17     7    20 1   
    18     8    11 1   
    19     8    17 1   
    20     8    45 1   
    21     9    30 1   
    22     9    46 1   
    23     9    47 1   
    24    10    20 2   
    25    11    48 1   
    26    11    49 1   
    27    12    35 1   
    28    12    50 1   
    29    12    51 1   
    30    13    14 1   
    31    13    52 1   
    32    13    53 1   
    33    14    28 ar  
    34    14    32 ar  
    35    15    38 1   
    36    16    33 ar  
    37    16    37 ar  
    38    16    38 1   
    39    17    18 1   
    40    17    54 1   
    41    17    55 1   
    42    18    19 1   
    43    18    22 2   
    44    19    56 1   
    45    19    57 1   
    46    20    21 1   
    47    21    23 ar  
    48    21    27 ar  
    49    22    58 1   
    50    23    24 ar  
    51    23    59 1   
    52    24    25 ar  
    53    24    60 1   
    54    25    26 ar  
    55    26    27 ar  
    56    26    61 1   
    57    27    62 1   
    58    28    29 ar  
    59    28    63 1   
    60    29    30 ar  
    61    29    64 1   
    62    30    31 ar  
    63    31    32 ar  
    64    31    65 1   
    65    32    66 1   
    66    33    34 ar  
    67    33    67 1   
    68    34    35 ar  
    69    34    68 1   
    70    35    36 ar  
    71    36    37 ar  
    72    36    69 1   
    73    37    70 1   
    74    38    71 1   
    75    38    72 1   
@<TRIPOS>SUBSTRUCTURE
     1 NC8         1 TEMP              0 ****  ****    0 ROOT
