@<TRIPOS>MOLECULE
NC8
   72    75     1     0     0
SMALL
No Charge or Current Charge


@<TRIPOS>ATOM
      1 C1          -0.1690     2.4050     5.1480 c3         1 NC8       0.148800
      2 N1          -0.6180     3.3790     4.0770 ny         1 NC8      -0.818000
      3 O1          -3.9200    -0.8400     0.7240 o          1 NC8      -0.577100
      4 Br1          0.8190    -0.5540    -5.2320 br         1 NC8      -0.060100
      5 C2          -1.8560     3.0270     3.2520 c3         1 NC8       0.095600
      6 N2          -2.5100     0.8750     0.1290 n          1 NC8      -0.425800
      7 O2           0.8590    -0.6230     1.6520 os         1 NC8      -0.455100
      8 C3          -1.6460     1.8080     2.3260 c3         1 NC8      -0.094700
      9 N3          -5.8380     5.1830    -3.3090 nv         1 NC8      -1.063000
     10 O3           1.7380    -2.7120     1.3480 o          1 NC8      -0.466000
     11 C4          -2.8340     1.6810     1.3400 c3         1 NC8       0.097000
     12 N4          -1.6920    -6.8300     0.3810 nv         1 NC8      -1.064000
     13 C5          -1.9810     1.6490    -1.0240 c3         1 NC8       0.156300
     14 C6          -3.0080     2.5920    -1.6340 ca         1 NC8      -0.182300
     15 C7          -3.0380    -0.4360    -0.0250 c          1 NC8       0.600100
     16 C8          -2.2910    -2.8290    -0.7040 ca         1 NC8      -0.137300
     17 C9          -1.4150     0.4980     3.1270 c3         1 NC8      -0.075200
     18 C10          0.0070     0.3680     3.6570 c2         1 NC8      -0.037400
     19 C11          0.7760    -0.8110     3.0760 c3         1 NC8       0.191800
     20 C12          1.3550    -1.6450     0.8880 c          1 NC8       0.613700
     21 C13          1.2580    -1.3710    -0.5900 ca         1 NC8      -0.141600
     22 C14          0.5340     1.2180     4.5530 c2         1 NC8      -0.287200
     23 C15          1.2380    -2.4450    -1.5070 ca         1 NC8      -0.054500
     24 C16          1.1090    -2.2020    -2.8850 ca         1 NC8      -0.096500
     25 C17          1.0080    -0.8840    -3.3580 ca         1 NC8       0.012100
     26 C18          1.0400     0.1920    -2.4590 ca         1 NC8      -0.096500
     27 C19          1.1600    -0.0480    -1.0790 ca         1 NC8      -0.054500
     28 C20         -2.8740     3.9860    -1.4790 ca         1 NC8      -0.057000
     29 C21         -3.8270     4.8530    -2.0430 ca         1 NC8      -0.181000
     30 C22         -4.9130     4.3370    -2.7620 ca         1 NC8       0.313000
     31 C23         -5.0480     2.9510    -2.9210 ca         1 NC8      -0.181000
     32 C24         -4.1000     2.0780    -2.3600 ca         1 NC8      -0.057000
     33 C25         -1.7000    -3.1510     0.5330 ca         1 NC8      -0.049500
     34 C26         -1.5000    -4.4940     0.8950 ca         1 NC8      -0.175500
     35 C27         -1.8870    -5.5230     0.0270 ca         1 NC8       0.304000
     36 C28         -2.4730    -5.2100    -1.2070 ca         1 NC8      -0.175500
     37 C29         -2.6730    -3.8680    -1.5750 ca         1 NC8      -0.049500
     38 C30         -2.4770    -1.3690    -1.1270 c3         1 NC8      -0.089100
     39 H11          0.5070     2.9240     5.8360 hx         1 NC8       0.098700
     40 H21         -1.0450     2.0830     5.7200 hx         1 NC8       0.098700
     41 H1N1        -0.7670     4.3100     4.5230 hn         1 NC8       0.499500
     42 H2N1         0.1850     3.5640     3.4420 hn         1 NC8       0.499500
     43 H12         -2.6920     2.8300     3.9300 hx         1 NC8       0.097700
     44 H22         -2.1170     3.8940     2.6360 hx         1 NC8       0.097700
     45 H3          -0.7490     2.0050     1.7250 hc         1 NC8       0.070700
     46 H1N3        -5.8240     6.1710    -3.0640 hn         1 NC8       0.457500
     47 H2N3        -6.7020     4.8080    -3.6960 hn         1 NC8       0.457500
     48 H14         -3.1270     2.6880     1.0140 h1         1 NC8       0.074200
     49 H24         -3.7030     1.2710     1.8690 h1         1 NC8       0.074200
     50 H1N4        -1.4010    -7.0590     1.3290 hn         1 NC8       0.451000
     51 H2N4        -2.1010    -7.5750    -0.1800 hn         1 NC8       0.451000
     52 H15         -1.1160     2.2300    -0.6770 h1         1 NC8       0.052200
     53 H25         -1.6100     1.0000    -1.8210 h1         1 NC8       0.052200
     54 H19         -2.1290     0.4510     3.9580 hc         1 NC8       0.088700
     55 H29         -1.6600    -0.3620     2.4940 hc         1 NC8       0.088700
     56 H111         0.2440    -1.7420     3.3190 h1         1 NC8       0.078700
     57 H211         1.7790    -0.8730     3.5180 h1         1 NC8       0.078700
     58 H14A         1.5580     1.0860     4.9090 ha         1 NC8       0.228000
     59 H15A         1.3040    -3.4720    -1.1510 ha         1 NC8       0.130000
     60 H16          1.0820    -3.0350    -3.5830 ha         1 NC8       0.141000
     61 H18          0.9650     1.2130    -2.8280 ha         1 NC8       0.141000
     62 H19A         1.1780     0.7980    -0.3940 ha         1 NC8       0.130000
     63 H20         -2.0360     4.3990    -0.9220 ha         1 NC8       0.106500
     64 H21A        -3.7160     5.9270    -1.9180 ha         1 NC8       0.121500
     65 H23         -5.8870     2.5450    -3.4800 ha         1 NC8       0.121500
     66 H24A        -4.2150     1.0040    -2.4900 ha         1 NC8       0.106500
     67 H25A        -1.3920    -2.3640     1.2150 ha         1 NC8       0.104500
     68 H26         -1.0400    -4.7290     1.8510 ha         1 NC8       0.117000
     69 H28         -2.7710    -6.0030    -1.8870 ha         1 NC8       0.117000
     70 H29A        -3.1210    -3.6380    -2.5400 ha         1 NC8       0.104500
     71 H130        -3.1570    -1.2900    -1.9820 hc         1 NC8       0.066700
     72 H230        -1.5240    -0.9920    -1.4990 hc         1 NC8       0.066700
@<TRIPOS>BOND
     1     1     2 1   
     2     1    22 1   
     3     1    39 1   
     4     1    40 1   
     5     2     5 1   
     6     2    41 1   
     7     2    42 1   
     8     3    15 2   
     9     4    25 1   
    10     5     8 1   
    11     5    43 1   
    12     5    44 1   
    13     6    11 1   
    14     6    13 1   
    15     6    15 1   
    16     7    19 1   
    17     7    20 1   
    18     8    11 1   
    19     8    17 1   
    20     8    45 1   
    21     9    30 1   
    22     9    46 1   
    23     9    47 1   
    24    10    20 2   
    25    11    48 1   
    26    11    49 1   
    27    12    35 1   
    28    12    50 1   
    29    12    51 1   
    30    13    14 1   
    31    13    52 1   
    32    13    53 1   
    33    14    28 ar  
    34    14    32 ar  
    35    15    38 1   
    36    16    33 ar  
    37    16    37 ar  
    38    16    38 1   
    39    17    18 1   
    40    17    54 1   
    41    17    55 1   
    42    18    19 1   
    43    18    22 2   
    44    19    56 1   
    45    19    57 1   
    46    20    21 1   
    47    21    23 ar  
    48    21    27 ar  
    49    22    58 1   
    50    23    24 ar  
    51    23    59 1   
    52    24    25 ar  
    53    24    60 1   
    54    25    26 ar  
    55    26    27 ar  
    56    26    61 1   
    57    27    62 1   
    58    28    29 ar  
    59    28    63 1   
    60    29    30 ar  
    61    29    64 1   
    62    30    31 ar  
    63    31    32 ar  
    64    31    65 1   
    65    32    66 1   
    66    33    34 ar  
    67    33    67 1   
    68    34    35 ar  
    69    34    68 1   
    70    35    36 ar  
    71    36    37 ar  
    72    36    69 1   
    73    37    70 1   
    74    38    71 1   
    75    38    72 1   
@<TRIPOS>SUBSTRUCTURE
     1 NC8         1 TEMP              0 ****  ****    0 ROOT
