@<TRIPOS>MOLECULE
NC9
   60    62     1     0     0
SMALL
bcc


@<TRIPOS>ATOM
      1 C1          -5.6470    -0.3390     0.6550 c3         1 NC9       0.178000
      2 N1          -4.7660    -0.2220     1.8610 ny         1 NC9      -0.765000
      3 O1           0.3080    -1.1300     1.2390 o          1 NC9      -0.589100
      4 C2          -3.5600     0.6360     1.7120 c3         1 NC9       0.125800
      5 O2          -4.2640    -3.1660    -2.1790 oh         1 NC9      -0.595800
      6 C3          -2.5260     0.1050     0.7310 c3         1 NC9      -0.096700
      7 N3           3.0410     6.2520     0.4620 nv         1 NC9      -0.811200
      8 C4          -1.2960     1.0150     0.8720 c3         1 NC9       0.109000
      9 N4           4.6660    -5.2740     1.1410 nv         1 NC9      -0.819200
     10 C5           0.1030     1.5950    -1.0850 c3         1 NC9       0.161300
     11 C6           0.8720     2.8170    -0.6380 ca         1 NC9      -0.185300
     12 C7           0.5570    -0.4220     0.2770 c          1 NC9       0.663100
     13 C8           2.5200    -1.9120    -0.1990 ca         1 NC9      -0.135300
     14 C9          -3.0380     0.0560    -0.7110 c3         1 NC9      -0.071200
     15 C10         -3.9410    -1.1150    -0.9840 c2         1 NC9      -0.039400
     16 C11         -3.3980    -2.0850    -1.9840 c3         1 NC9       0.169600
     17 C14         -5.1040    -1.2910    -0.3610 c2         1 NC9      -0.234200
     18 C20          0.8360     3.9730    -1.4130 ca         1 NC9      -0.079500
     19 C21          1.5630     5.1000    -1.0700 ca         1 NC9      -0.191000
     20 C22          2.3590     5.1130     0.0820 ca         1 NC9       0.165600
     21 C23          2.3900     3.9560     0.8670 ca         1 NC9      -0.191000
     22 C24          1.6590     2.8340     0.5070 ca         1 NC9      -0.079500
     23 C25          2.2270    -3.1890    -0.6680 ca         1 NC9      -0.068500
     24 C26          2.9420    -4.2990    -0.2480 ca         1 NC9      -0.194500
     25 C27          3.9870    -4.1680     0.6730 ca         1 NC9       0.168600
     26 C28          4.2900    -2.8830     1.1410 ca         1 NC9      -0.194500
     27 C29          3.5650    -1.7850     0.7100 ca         1 NC9      -0.068500
     28 C30          1.7300    -0.7210    -0.6480 c3         1 NC9      -0.090100
     29 H11         -6.6110    -0.6800     1.0220 hx         1 NC9       0.095700
     30 H21         -5.7820     0.6750     0.2730 hx         1 NC9       0.095700
     31 H1N1        -5.3220     0.1630     2.6250 hn         1 NC9       0.446800
     32 H2N1        -4.4950    -1.1560     2.1720 hn         1 NC9       0.446800
     33 H12         -3.9210     1.6210     1.4160 hx         1 NC9       0.094700
     34 H22         -3.1310     0.7210     2.7100 hx         1 NC9       0.094700
     35 HO2         -3.8540    -3.7710    -2.8030 ho         1 NC9       0.433000
     36 H3          -2.2360    -0.9020     1.0410 hc         1 NC9       0.098700
     37 H1N3         3.2690     6.8860    -0.2880 hn         1 NC9       0.398800
     38 H2N3         3.8370     6.0960     1.0590 hn         1 NC9       0.398800
     39 H14         -0.9550     1.0010     1.9090 h1         1 NC9       0.063700
     40 H24         -1.5770     2.0460     0.6480 h1         1 NC9       0.063700
     41 H1N4         4.6550    -6.0800     0.5370 hn         1 NC9       0.397800
     42 H2N4         5.5870    -5.0990     1.5090 hn         1 NC9       0.397800
     43 H15          0.6440     1.0760    -1.8750 h1         1 NC9       0.053200
     44 H25         -0.8370     1.9090    -1.5450 h1         1 NC9       0.053200
     45 H19         -3.5430     0.9960    -0.9600 hc         1 NC9       0.076700
     46 H29         -2.1810    -0.0030    -1.3850 hc         1 NC9       0.076700
     47 H111        -2.4070    -2.4090    -1.6290 h1         1 NC9       0.047700
     48 H211        -3.2100    -1.5310    -2.9160 h1         1 NC9       0.047700
     49 H14A        -5.7160    -2.1580    -0.5720 ha         1 NC9       0.186000
     50 H20          0.2260     4.0000    -2.3090 ha         1 NC9       0.127500
     51 H21A         1.5100     5.9830    -1.6960 ha         1 NC9       0.139500
     52 H23          2.9920     3.9350     1.7680 ha         1 NC9       0.139500
     53 H24A         1.7070     1.9640     1.1510 ha         1 NC9       0.127500
     54 H25A         1.4240    -3.3250    -1.3840 ha         1 NC9       0.120500
     55 H26          2.6890    -5.2790    -0.6370 ha         1 NC9       0.134500
     56 H28          5.0990    -2.7480     1.8490 ha         1 NC9       0.134500
     57 H29A         3.8280    -0.8040     1.0900 ha         1 NC9       0.120500
     58 H130         1.3490    -0.8870    -1.6600 hc         1 NC9       0.068200
     59 H230         2.3750     0.1610    -0.7160 hc         1 NC9       0.068200
     60 N2          -0.2020     0.6640    -0.0160 n          1 NC9      -0.490800
@<TRIPOS>BOND
     1     1     2 1   
     2     1    17 1   
     3     1    29 1   
     4     1    30 1   
     5     2     4 1   
     6     2    31 1   
     7     2    32 1   
     8     3    12 2   
     9     4     6 1   
    10     4    33 1   
    11     4    34 1   
    12     5    16 1   
    13     5    35 1   
    14     6     8 1   
    15     6    14 1   
    16     6    36 1   
    17     7    20 1   
    18     7    37 1   
    19     7    38 1   
    20     8    39 1   
    21     8    40 1   
    22     8    60 1   
    23     9    25 1   
    24     9    41 1   
    25     9    42 1   
    26    10    11 1   
    27    10    43 1   
    28    10    44 1   
    29    10    60 1   
    30    11    18 ar  
    31    11    22 ar  
    32    12    28 1   
    33    12    60 1   
    34    13    23 ar  
    35    13    27 ar  
    36    13    28 1   
    37    14    15 1   
    38    14    45 1   
    39    14    46 1   
    40    15    16 1   
    41    15    17 2   
    42    16    47 1   
    43    16    48 1   
    44    17    49 1   
    45    18    19 ar  
    46    18    50 1   
    47    19    20 ar  
    48    19    51 1   
    49    20    21 ar  
    50    21    22 ar  
    51    21    52 1   
    52    22    53 1   
    53    23    24 ar  
    54    23    54 1   
    55    24    25 ar  
    56    24    55 1   
    57    25    26 ar  
    58    26    27 ar  
    59    26    56 1   
    60    27    57 1   
    61    28    58 1   
    62    28    59 1   
@<TRIPOS>SUBSTRUCTURE
     1 NC9         1 TEMP              0 ****  ****    0 ROOT
