@<TRIPOS>MOLECULE
NC9
   60    62     1     0     0
SMALL
No Charge or Current Charge


@<TRIPOS>ATOM
      1 C1          -5.2300    -1.1440     0.7330 c3         1 NC9       0.149800
      2 N1          -4.3360    -0.7970     1.9010 ny         1 NC9      -0.819000
      3 O1           0.9860     0.1740     2.1970 o          1 NC9      -0.589100
      4 C2          -3.3710     0.3720     1.7330 c3         1 NC9       0.097600
      5 O2          -1.9340    -3.3590    -1.4620 oh         1 NC9      -0.658000
      6 C3          -2.2210     0.0930     0.7380 c3         1 NC9      -0.096700
      7 N3           2.5020     6.9340    -0.1260 nv         1 NC9      -1.060000
      8 C4          -1.1880     1.2460     0.8410 c3         1 NC9       0.109000
      9 N4           2.6240    -5.8890     0.3370 nv         1 NC9      -1.068000
     10 C5           0.4220     1.6870    -1.0410 c3         1 NC9       0.161300
     11 C6           0.9860     3.0830    -0.7940 ca         1 NC9      -0.185300
     12 C7           1.1490     0.3450     0.9940 c          1 NC9       0.596100
     13 C8           2.4960    -1.7050     0.3350 ca         1 NC9      -0.135300
     14 C9          -2.7200    -0.1200    -0.7210 c3         1 NC9      -0.071200
     15 C10         -3.3800    -1.4730    -0.9730 c2         1 NC9      -0.039400
     16 C11         -2.7160    -2.3160    -2.0580 c3         1 NC9       0.192800
     17 C14         -4.4780    -1.8960    -0.3250 c2         1 NC9      -0.284200
     18 C20          0.1320     4.2040    -0.8420 ca         1 NC9      -0.061500
     19 C21          0.6430     5.4950    -0.6200 ca         1 NC9      -0.173000
     20 C22          2.0060     5.6770    -0.3460 ca         1 NC9       0.304000
     21 C23          2.8610     4.5680    -0.3000 ca         1 NC9      -0.173000
     22 C24          2.3570     3.2760    -0.5280 ca         1 NC9      -0.061500
     23 C25          1.4570    -2.4470    -0.2620 ca         1 NC9      -0.050500
     24 C26          1.5040    -3.8530    -0.2590 ca         1 NC9      -0.176500
     25 C27          2.5830    -4.5220     0.3330 ca         1 NC9       0.307000
     26 C28          3.6210    -3.7880     0.9220 ca         1 NC9      -0.176500
     27 C29          3.5800    -2.3820     0.9250 ca         1 NC9      -0.050500
     28 C30          2.4480    -0.1780     0.3350 c3         1 NC9      -0.090100
     29 H11         -6.0620    -1.7560     1.0960 hx         1 NC9       0.095700
     30 H21         -5.6490    -0.2200     0.3220 hx         1 NC9       0.095700
     31 H1N1        -4.9380    -0.6170     2.7340 hn         1 NC9       0.502000
     32 H2N1        -3.8130    -1.6500     2.1860 hn         1 NC9       0.502000
     33 H12         -3.9340     1.2500     1.4020 hx         1 NC9       0.094700
     34 H22         -2.9360     0.6000     2.7120 hx         1 NC9       0.094700
     35 HO2         -1.5910    -3.9120    -2.2000 ho         1 NC9       0.472000
     36 H3          -1.7130    -0.8230     1.0640 hc         1 NC9       0.098700
     37 H1N3         1.9180     7.7490    -0.3060 hn         1 NC9       0.454000
     38 H2N3         3.5080     7.0810    -0.0640 hn         1 NC9       0.454000
     39 H14         -1.0270     1.4960     1.8990 h1         1 NC9       0.063700
     40 H24         -1.6170     2.1460     0.3820 h1         1 NC9       0.063700
     41 H1N4         1.9420    -6.4210    -0.2010 hn         1 NC9       0.453000
     42 H2N4         3.4650    -6.3720     0.6440 hn         1 NC9       0.453000
     43 H15          1.0890     1.1180    -1.6960 h1         1 NC9       0.053200
     44 H25         -0.5100     1.7930    -1.6090 h1         1 NC9       0.053200
     45 H19         -3.4180     0.6850    -0.9840 hc         1 NC9       0.076700
     46 H29         -1.8700     0.0030    -1.4000 hc         1 NC9       0.076700
     47 H111        -2.0900    -1.6940    -2.7110 h1         1 NC9       0.047700
     48 H211        -3.4990    -2.7510    -2.6950 h1         1 NC9       0.047700
     49 H14A        -4.9060    -2.8730    -0.5590 ha         1 NC9       0.236000
     50 H20         -0.9280     4.0780    -1.0560 ha         1 NC9       0.109500
     51 H21A        -0.0240     6.3510    -0.6620 ha         1 NC9       0.121500
     52 H23          3.9190     4.7030    -0.0920 ha         1 NC9       0.121500
     53 H24A         3.0410     2.4320    -0.4990 ha         1 NC9       0.109500
     54 H25A         0.6150    -1.9380    -0.7260 ha         1 NC9       0.102500
     55 H26          0.6970    -4.4180    -0.7190 ha         1 NC9       0.116500
     56 H28          4.4620    -4.3010     1.3800 ha         1 NC9       0.116500
     57 H29A         4.3920    -1.8240     1.3860 ha         1 NC9       0.102500
     58 H130         2.5700     0.1620    -0.6930 hc         1 NC9       0.068200
     59 H230         3.2880     0.2140     0.9190 hc         1 NC9       0.068200
     60 N2           0.1240     0.9420     0.2090 n          1 NC9      -0.423800
@<TRIPOS>BOND
     1     1     2 1   
     2     1    17 1   
     3     1    29 1   
     4     1    30 1   
     5     2     4 1   
     6     2    31 1   
     7     2    32 1   
     8     3    12 2   
     9     4     6 1   
    10     4    33 1   
    11     4    34 1   
    12     5    16 1   
    13     5    35 1   
    14     6     8 1   
    15     6    14 1   
    16     6    36 1   
    17     7    20 1   
    18     7    37 1   
    19     7    38 1   
    20     8    39 1   
    21     8    40 1   
    22     8    60 1   
    23     9    25 1   
    24     9    41 1   
    25     9    42 1   
    26    10    11 1   
    27    10    43 1   
    28    10    44 1   
    29    10    60 1   
    30    11    18 ar  
    31    11    22 ar  
    32    12    28 1   
    33    12    60 1   
    34    13    23 ar  
    35    13    27 ar  
    36    13    28 1   
    37    14    15 1   
    38    14    45 1   
    39    14    46 1   
    40    15    16 1   
    41    15    17 2   
    42    16    47 1   
    43    16    48 1   
    44    17    49 1   
    45    18    19 ar  
    46    18    50 1   
    47    19    20 ar  
    48    19    51 1   
    49    20    21 ar  
    50    21    22 ar  
    51    21    52 1   
    52    22    53 1   
    53    23    24 ar  
    54    23    54 1   
    55    24    25 ar  
    56    24    55 1   
    57    25    26 ar  
    58    26    27 ar  
    59    26    56 1   
    60    27    57 1   
    61    28    58 1   
    62    28    59 1   
@<TRIPOS>SUBSTRUCTURE
     1 NC9         1 TEMP              0 ****  ****    0 ROOT
