@<TRIPOS>MOLECULE
NCA
   15    15     1     0     0
SMALL
No Charge or Current Charge


@<TRIPOS>ATOM
      1 N1           1.2190     0.0180    -1.8820 nb         1 NCA      -0.671000
      2 C2           1.1440     0.0110    -0.5310 ca         1 NCA       0.358900
      3 C3          -0.0730    -0.0020     0.1780 ca         1 NCA      -0.208600
      4 C4          -1.2740    -0.0080    -0.5630 ca         1 NCA      -0.021000
      5 C5          -1.1970    -0.0010    -1.9650 ca         1 NCA      -0.173000
      6 C6           0.0620     0.0120    -2.5820 ca         1 NCA       0.353900
      7 C7          -0.1050    -0.0090     1.6780 c          1 NCA       0.622700
      8 O7          -1.1490    -0.0200     2.3080 o          1 NCA      -0.600100
      9 N7           1.0660    -0.0030     2.3520 nt         1 NCA      -0.602000
     10 H2           2.1030     0.0160    -0.0140 h4         1 NCA       0.016100
     11 H4          -2.2430    -0.0180    -0.0680 ha         1 NCA       0.142000
     12 H5          -2.0990    -0.0050    -2.5700 ha         1 NCA       0.129000
     13 H6           0.1490     0.0170    -3.6680 h4         1 NCA       0.022100
     14 HN71         1.0470    -0.0080     3.3610 hn         1 NCA       0.316000
     15 HN72         1.9450     0.0060     1.8590 hn         1 NCA       0.316000
@<TRIPOS>BOND
     1     1     2 ar  
     2     1     6 ar  
     3     2     3 ar  
     4     2    10 1   
     5     3     4 ar  
     6     3     7 1   
     7     4     5 ar  
     8     4    11 1   
     9     5     6 ar  
    10     5    12 1   
    11     6    13 1   
    12     7     8 2   
    13     7     9 1   
    14     9    14 1   
    15     9    15 1   
@<TRIPOS>SUBSTRUCTURE
     1 NCA         1 TEMP              0 ****  ****    0 ROOT
