@<TRIPOS>MOLECULE
NCA
   15    15     1     0     0
SMALL
bcc


@<TRIPOS>ATOM
      1 N1           1.1970     0.1820    -1.8760 nb         1 NCA      -0.671000
      2 C2           1.1390     0.2090    -0.5520 ca         1 NCA       0.424200
      3 C3          -0.0430     0.0810     0.1710 ca         1 NCA      -0.273900
      4 C4          -1.2270    -0.0620    -0.5450 ca         1 NCA      -0.039000
      5 C5          -1.1740    -0.1030    -1.9270 ca         1 NCA      -0.256300
      6 C6           0.0620     0.0210    -2.5450 ca         1 NCA       0.419200
      7 C7          -0.1030     0.1380     1.6640 c          1 NCA       0.689700
      8 O7          -1.1380     0.4530     2.2340 o          1 NCA      -0.600100
      9 N7           1.0290    -0.1680     2.3140 nt         1 NCA      -0.669000
     10 H2           2.0870     0.3620    -0.0450 h4         1 NCA       0.016100
     11 H4          -2.1730    -0.1520    -0.0280 ha         1 NCA       0.160000
     12 H5          -2.0700    -0.2270    -2.5190 ha         1 NCA       0.147000
     13 H6           0.1370    -0.0070    -3.6260 h4         1 NCA       0.022100
     14 HN71         1.0430    -0.1580     3.3210 hn         1 NCA       0.316000
     15 HN72         1.8300    -0.5620     1.8530 hn         1 NCA       0.316000
@<TRIPOS>BOND
     1     1     2 ar  
     2     1     6 ar  
     3     2     3 ar  
     4     2    10 1   
     5     3     4 ar  
     6     3     7 1   
     7     4     5 ar  
     8     4    11 1   
     9     5     6 ar  
    10     5    12 1   
    11     6    13 1   
    12     7     8 2   
    13     7     9 1   
    14     9    14 1   
    15     9    15 1   
@<TRIPOS>SUBSTRUCTURE
     1 NCA         1 TEMP              0 ****  ****    0 ROOT
