@<TRIPOS>MOLECULE
NCB
   16    15     1     0     0
SMALL
No Charge or Current Charge


@<TRIPOS>ATOM
      1 N           26.1290    -9.9240    72.4710 ns         1 NCB      -0.489900
      2 CA          24.7040    -9.7780    72.0870 c3         1 NCB      -0.031300
      3 C           23.7700    -9.9420    73.3300 c          1 NCB       0.715000
      4 O           22.7890   -10.6640    73.2230 o          1 NCB      -0.728500
      5 OXT         24.1140    -9.4340    74.3900 o          1 NCB      -0.728500
      6 CB          24.4470    -8.4380    71.3610 c3         1 NCB      -0.076100
      7 O3          27.0160   -10.4880    70.4380 o          1 NCB      -0.689100
      8 C3          27.1490   -10.2500    71.6230 c          1 NCB       0.623100
      9 N2          28.3470   -10.2940    72.2230 nt         1 NCB      -0.606000
     10 H           26.3730    -9.7590    73.4400 hn         1 NCB       0.336500
     11 HA          24.4590   -10.5930    71.3930 h1         1 NCB       0.045700
     12 HB3         23.3940    -8.3590    71.0660 hc         1 NCB       0.024033
     13 HB2         24.6850    -7.5900    72.0140 hc         1 NCB       0.024033
     14 HB1         25.0600    -8.3590    70.4550 hc         1 NCB       0.024033
     15 H22         28.4340   -10.0940    73.2070 hn         1 NCB       0.279000
     16 H21         29.1610   -10.5280    71.6750 hn         1 NCB       0.279000
@<TRIPOS>BOND
     1     1     2 1   
     2     1     8 1   
     3     1    10 1   
     4     2     3 1   
     5     2     6 1   
     6     2    11 1   
     7     3     4 1   
     8     3     5 1   
     9     6    12 1   
    10     6    13 1   
    11     6    14 1   
    12     7     8 2   
    13     8     9 1   
    14     9    15 1   
    15     9    16 1   
@<TRIPOS>SUBSTRUCTURE
     1 NCB         1 TEMP              0 ****  ****    0 ROOT
