@<TRIPOS>MOLECULE
NCB
   16    15     1     0     0
SMALL
abcg2


@<TRIPOS>ATOM
      1 N           26.1350    -9.8150    72.4870 ns         1 NCB      -0.489900
      2 CA          24.7470    -9.7970    72.0890 c3         1 NCB      -0.031300
      3 C           23.8520    -9.9280    73.3510 c          1 NCB       0.715000
      4 O           22.6310   -10.0040    73.1350 o          1 NCB      -0.728500
      5 OXT         24.4270    -9.9330    74.4590 o          1 NCB      -0.728500
      6 CB          24.3890    -8.5320    71.3110 c3         1 NCB      -0.076100
      7 O3          27.0030   -10.3300    70.4530 o          1 NCB      -0.689100
      8 C3          27.1510   -10.1200    71.6560 c          1 NCB       0.623100
      9 N2          28.3950   -10.1270    72.2360 nt         1 NCB      -0.606000
     10 H           26.2710    -9.7740    73.4880 hn         1 NCB       0.336500
     11 HA          24.5430   -10.6620    71.4480 h1         1 NCB       0.045700
     12 HB3         23.3490    -8.5560    70.9900 hc         1 NCB       0.024033
     13 HB2         24.5350    -7.6420    71.9270 hc         1 NCB       0.024033
     14 HB1         25.0130    -8.4330    70.4230 hc         1 NCB       0.024033
     15 H22         28.4730   -10.2480    73.2330 hn         1 NCB       0.279000
     16 H21         29.1160   -10.5930    71.7110 hn         1 NCB       0.279000
@<TRIPOS>BOND
     1     1     2 1   
     2     1     8 1   
     3     1    10 1   
     4     2     3 1   
     5     2     6 1   
     6     2    11 1   
     7     3     4 1   
     8     3     5 1   
     9     6    12 1   
    10     6    13 1   
    11     6    14 1   
    12     7     8 2   
    13     8     9 1   
    14     9    15 1   
    15     9    16 1   
@<TRIPOS>SUBSTRUCTURE
     1 NCB         1 TEMP              0 ****  ****    0 ROOT
