@<TRIPOS>MOLECULE
NCC
   70    72     1     0     0
SMALL
No Charge or Current Charge


@<TRIPOS>ATOM
      1 O3P          0.3200    -3.0520     0.5290 o          1 NCC      -0.818500
      2 P            1.3240    -1.9740     0.2860 p5         1 NCC       1.417800
      3 O2P          2.0900    -1.4840     1.6230 os         1 NCC      -0.604400
      4 O1P          2.2990    -2.3400    -0.7850 o          1 NCC      -0.818500
      5 O5           0.5850    -0.5890    -0.0640 os         1 NCC      -0.595400
      6 C5          -0.4620    -0.6100    -1.0430 c3         1 NCC       0.228600
      7 C4          -0.6660     0.8300    -1.5920 c5         1 NCC       0.164300
      8 O4           0.2530     1.0550    -2.7040 os         1 NCC      -0.416000
      9 C1          -0.5180     1.4490    -3.8520 c5         1 NCC       0.342700
     10 N1           0.0580     1.0170    -5.1540 n          1 NCC      -0.308000
     11 C6           0.0490     1.9190    -6.2140 cc         1 NCC       0.039600
     12 C7           0.6370     1.5600    -7.4020 cd         1 NCC      -0.515600
     13 C8           1.2180     0.2810    -7.4710 cd         1 NCC       0.773500
     14 N4           1.8080    -0.1150    -8.5800 nv         1 NCC      -1.053200
     15 N3           1.2310    -0.5690    -6.5020 nc         1 NCC      -0.755100
     16 C2           0.6510    -0.2580    -5.2980 c          1 NCC       0.708400
     17 O2           0.6400    -1.1000    -4.4160 o          1 NCC      -0.479000
     18 C11         -1.9130     0.7700    -3.6730 c5         1 NCC       0.069300
     19 O12         -2.9770     1.3400    -4.4720 oh         1 NCC      -0.733000
     20 C3          -2.1140     1.0810    -2.1650 c5         1 NCC       0.107300
     21 O3          -2.5530     2.4380    -2.0240 oh         1 NCC      -0.717000
     22 C9           1.8980    -3.5220     3.1830 c          1 NCC       0.746000
     23 O1B          2.6020    -4.1340     2.3810 o          1 NCC      -0.708000
     24 O1A          0.9710    -4.1240     3.7220 o          1 NCC      -0.708000
     25 C10          1.7040    -1.9260     2.9500 c6         1 NCC       0.322000
     26 O6           0.3310    -1.4990     3.2200 os         1 NCC      -0.455000
     27 C12          0.0600    -0.0640     3.2380 c6         1 NCC       0.132300
     28 C13         -1.4780     0.0630     3.5290 c3         1 NCC       0.161300
     29 O7          -1.8630    -1.0180     4.3980 oh         1 NCC      -0.749000
     30 C14         -2.3550     0.0460     2.2400 c3         1 NCC       0.125300
     31 O8          -2.0640     1.2000     1.4310 oh         1 NCC      -0.639000
     32 C15         -3.8800     0.0590     2.5270 c3         1 NCC       0.129600
     33 O9          -4.6120     0.1900     1.2940 oh         1 NCC      -0.708000
     34 C16          0.9490     0.6470     4.3030 c6         1 NCC       0.077700
     35 N5           0.7530     2.1160     4.2950 ns         1 NCC      -0.481900
     36 C17          0.0090     2.8390     5.1980 c          1 NCC       0.602100
     37 O10         -0.5830     2.3220     6.1350 o          1 NCC      -0.623100
     38 C18         -0.0200     4.3410     4.9390 c3         1 NCC      -0.182100
     39 C19          2.4370     0.2980     4.0170 c6         1 NCC       0.149300
     40 O11          3.2990     0.8700     5.0140 oh         1 NCC      -0.684000
     41 C20          2.6350    -1.2310     3.9830 c6         1 NCC      -0.120400
     42 H5'1        -0.2300    -1.2930    -1.8710 h1         1 NCC       0.034700
     43 H5'2        -1.3950    -0.9510    -0.5770 h1         1 NCC       0.034700
     44 H4          -0.4440     1.5420    -0.7870 h1         1 NCC       0.097700
     45 H1          -0.6120     2.5420    -3.8700 h2         1 NCC       0.039700
     46 H6          -0.4380     2.8670    -5.9950 h4         1 NCC       0.189000
     47 H5           0.6540     2.2320    -8.2520 ha         1 NCC       0.182000
     48 HN41         2.4190    -0.9090    -8.4490 hn         1 NCC       0.489500
     49 HN42         2.1570     0.6200    -9.1810 hn         1 NCC       0.489500
     50 H2          -1.8410    -0.3170    -3.8290 h1         1 NCC       0.098700
     51 H7          -2.8690     1.0060    -5.3960 ho         1 NCC       0.504000
     52 H3          -2.8490     0.3990    -1.7150 h1         1 NCC       0.069700
     53 H8          -3.0600     2.5950    -2.8590 ho         1 NCC       0.494000
     54 H12          0.2810     0.3660     2.2520 h1         1 NCC       0.066700
     55 H13         -1.6690     1.0200     4.0300 h1         1 NCC       0.032700
     56 HO7         -1.1560    -1.6940     4.2210 ho         1 NCC       0.561000
     57 H14         -2.1260    -0.8790     1.6900 h1         1 NCC       0.146700
     58 HO8         -2.8930     1.3540     0.9240 ho         1 NCC       0.410000
     59 H151        -4.1640    -0.8720     3.0350 h1         1 NCC       0.018700
     60 H152        -4.1180     0.8940     3.2010 h1         1 NCC       0.018700
     61 HO9         -5.5690     0.1340     1.5190 ho         1 NCC       0.474000
     62 H16          0.6850     0.2570     5.2960 h1         1 NCC       0.100700
     63 HN5          1.2220     2.6540     3.5770 hn         1 NCC       0.304500
     64 H181        -0.6190     4.8880     5.6770 hc         1 NCC       0.044033
     65 H182         1.0090     4.7170     4.8970 hc         1 NCC       0.044033
     66 H183        -0.3740     4.5210     3.9180 hc         1 NCC       0.044033
     67 H19          2.7000     0.7030     3.0280 h1         1 NCC       0.050700
     68 HO4          4.2220     0.7030     4.7220 ho         1 NCC       0.428000
     69 H201         3.6810    -1.4700     3.7460 hc         1 NCC       0.055200
     70 H202         2.4430    -1.6500     4.9810 hc         1 NCC       0.055200
@<TRIPOS>BOND
     1     1     2 1   
     2     2     3 1   
     3     2     4 1   
     4     2     5 1   
     5     3    25 1   
     6     5     6 1   
     7     6     7 1   
     8     6    42 1   
     9     6    43 1   
    10     7     8 1   
    11     7    20 1   
    12     7    44 1   
    13     8     9 1   
    14     9    10 1   
    15     9    18 1   
    16     9    45 1   
    17    10    11 1   
    18    10    16 1   
    19    11    12 2   
    20    11    46 1   
    21    12    13 1   
    22    12    47 1   
    23    13    14 1   
    24    13    15 2   
    25    14    48 1   
    26    14    49 1   
    27    15    16 1   
    28    16    17 2   
    29    18    19 1   
    30    18    20 1   
    31    18    50 1   
    32    19    51 1   
    33    20    21 1   
    34    20    52 1   
    35    21    53 1   
    36    22    23 1   
    37    22    24 1   
    38    22    25 1   
    39    25    26 1   
    40    25    41 1   
    41    26    27 1   
    42    27    28 1   
    43    27    34 1   
    44    27    54 1   
    45    28    29 1   
    46    28    30 1   
    47    28    55 1   
    48    29    56 1   
    49    30    31 1   
    50    30    32 1   
    51    30    57 1   
    52    31    58 1   
    53    32    33 1   
    54    32    59 1   
    55    32    60 1   
    56    33    61 1   
    57    34    35 1   
    58    34    39 1   
    59    34    62 1   
    60    35    36 1   
    61    35    63 1   
    62    36    37 2   
    63    36    38 1   
    64    38    64 1   
    65    38    65 1   
    66    38    66 1   
    67    39    40 1   
    68    39    41 1   
    69    39    67 1   
    70    40    68 1   
    71    41    69 1   
    72    41    70 1   
@<TRIPOS>SUBSTRUCTURE
     1 NCC         1 TEMP              0 ****  ****    0 ROOT
