@<TRIPOS>MOLECULE
NCC
   70    72     1     0     0
SMALL
bcc


@<TRIPOS>ATOM
      1 O3P         -0.1400    -3.0790     0.4100 o          1 NCC      -0.818500
      2 P            0.9420    -2.1320    -0.0020 p5         1 NCC       1.417800
      3 O2P          1.7790    -1.5310     1.2780 os         1 NCC      -0.581200
      4 O1P          1.9590    -2.5220    -1.0300 o          1 NCC      -0.818500
      5 O5           0.2720    -0.6950    -0.4560 os         1 NCC      -0.572200
      6 C5          -0.9440    -0.7080    -1.1660 c3         1 NCC       0.205400
      7 C4          -1.2470     0.7080    -1.6070 c5         1 NCC       0.141100
      8 O4          -0.2380     1.2050    -2.4940 os         1 NCC      -0.369600
      9 C1          -0.7680     1.4260    -3.7660 c5         1 NCC       0.319500
     10 N1           0.2060     1.1030    -4.7940 n          1 NCC      -0.375000
     11 C6           0.6810     2.1140    -5.5660 cc         1 NCC       0.089600
     12 C7           1.6110     1.9140    -6.5180 cd         1 NCC      -0.465600
     13 C8           2.0940     0.5770    -6.6580 cd         1 NCC       0.773500
     14 N4           3.0300     0.3080    -7.5670 nv         1 NCC      -0.942800
     15 N3           1.6440    -0.4100    -5.9100 nc         1 NCC      -0.755100
     16 C2           0.6960    -0.2070    -4.9700 c          1 NCC       0.850900
     17 O2           0.2580    -1.1160    -4.2830 o          1 NCC      -0.554500
     18 C11         -2.0970     0.6750    -3.8210 c5         1 NCC       0.046100
     19 O12         -2.9400     1.2860    -4.7610 oh         1 NCC      -0.610800
     20 C3          -2.5620     0.8210    -2.3680 c5         1 NCC       0.084100
     21 O3          -3.1110     2.0970    -2.1460 oh         1 NCC      -0.594800
     22 C9           1.4910    -3.3560     2.9060 c          1 NCC       0.956600
     23 O1B          2.3380    -4.0020     2.2650 o          1 NCC      -0.813300
     24 O1A          0.7430    -3.7650     3.8090 o          1 NCC      -0.813300
     25 C10          1.4550    -1.8290     2.6090 c6         1 NCC       0.275600
     26 O6           0.1830    -1.3670     2.9420 os         1 NCC      -0.408600
     27 C12         -0.0670     0.0190     2.9560 c6         1 NCC       0.109100
     28 C13         -1.4730     0.1200     3.5600 c3         1 NCC       0.138100
     29 O7          -1.5360    -0.6390     4.7440 oh         1 NCC      -0.626800
     30 C14         -2.5460    -0.2890     2.5330 c3         1 NCC       0.102100
     31 O8          -2.5960     0.6570     1.4880 oh         1 NCC      -0.576800
     32 C15         -3.9050    -0.4700     3.1900 c3         1 NCC       0.106400
     33 O9          -4.8380    -0.8550     2.2050 oh         1 NCC      -0.585800
     34 C16          0.9690     0.7850     3.7900 c6         1 NCC       0.077700
     35 N5           0.7620     2.2030     3.6210 ns         1 NCC      -0.548900
     36 C17          0.6510     3.0910     4.6250 c          1 NCC       0.669100
     37 O10          0.6410     2.7780     5.8070 o          1 NCC      -0.623100
     38 C18          0.5330     4.5320     4.1900 c3         1 NCC      -0.182100
     39 C19          2.3830     0.3810     3.3890 c6         1 NCC       0.126100
     40 O11          3.2760     1.0360     4.2610 oh         1 NCC      -0.621800
     41 C20          2.5100    -1.1340     3.4700 c6         1 NCC      -0.120400
     42 H5'1        -0.9000    -1.3730    -2.0330 h1         1 NCC       0.034700
     43 H5'2        -1.7650    -1.0430    -0.5270 h1         1 NCC       0.034700
     44 H4          -1.2700     1.3460    -0.7190 h1         1 NCC       0.097700
     45 H1          -0.9820     2.4920    -3.9110 h2         1 NCC       0.039700
     46 H6           0.2700     3.0960    -5.3760 h4         1 NCC       0.139000
     47 H5           1.9750     2.7280    -7.1270 ha         1 NCC       0.132000
     48 HN41         3.3970    -0.6240    -7.6570 hn         1 NCC       0.434300
     49 HN42         3.4110     1.0260    -8.1570 hn         1 NCC       0.434300
     50 H2          -1.9380    -0.3810    -4.0450 h1         1 NCC       0.098700
     51 H7          -3.6120     0.6510    -5.0260 ho         1 NCC       0.405000
     52 H3          -3.2680     0.0280    -2.0850 h1         1 NCC       0.069700
     53 H8          -3.6890     2.2970    -2.8920 ho         1 NCC       0.395000
     54 H12         -0.0770     0.4230     1.9360 h1         1 NCC       0.066700
     55 H13         -1.6670     1.1620     3.8430 h1         1 NCC       0.032700
     56 HO7         -1.0920    -1.4780     4.5570 ho         1 NCC       0.462000
     57 H14         -2.2490    -1.2330     2.0610 h1         1 NCC       0.146700
     58 HO8         -2.8960     1.4990     1.8480 ho         1 NCC       0.371000
     59 H151        -3.8260    -1.2210     3.9820 h1         1 NCC       0.018700
     60 H152        -4.1980     0.4750     3.6740 h1         1 NCC       0.018700
     61 HO9         -5.6830    -0.9930     2.6420 ho         1 NCC       0.375000
     62 H16          0.8280     0.5480     4.8480 h1         1 NCC       0.100700
     63 HN5          0.7960     2.5590     2.6780 hn         1 NCC       0.304500
     64 H181        -0.3280     4.9890     4.6760 hc         1 NCC       0.044033
     65 H182         1.4190     5.0780     4.5160 hc         1 NCC       0.044033
     66 H183         0.4320     4.6580     3.1130 hc         1 NCC       0.044033
     67 H19          2.5560     0.7040     2.3530 h1         1 NCC       0.050700
     68 HO4          4.1730     0.8590     3.9580 ho         1 NCC       0.389000
     69 H201         3.5060    -1.4530     3.1550 hc         1 NCC       0.055200
     70 H202         2.3790    -1.4490     4.5100 hc         1 NCC       0.055200
@<TRIPOS>BOND
     1     1     2 1   
     2     2     3 1   
     3     2     4 1   
     4     2     5 1   
     5     3    25 1   
     6     5     6 1   
     7     6     7 1   
     8     6    42 1   
     9     6    43 1   
    10     7     8 1   
    11     7    20 1   
    12     7    44 1   
    13     8     9 1   
    14     9    10 1   
    15     9    18 1   
    16     9    45 1   
    17    10    11 1   
    18    10    16 1   
    19    11    12 2   
    20    11    46 1   
    21    12    13 1   
    22    12    47 1   
    23    13    14 1   
    24    13    15 2   
    25    14    48 1   
    26    14    49 1   
    27    15    16 1   
    28    16    17 2   
    29    18    19 1   
    30    18    20 1   
    31    18    50 1   
    32    19    51 1   
    33    20    21 1   
    34    20    52 1   
    35    21    53 1   
    36    22    23 1   
    37    22    24 1   
    38    22    25 1   
    39    25    26 1   
    40    25    41 1   
    41    26    27 1   
    42    27    28 1   
    43    27    34 1   
    44    27    54 1   
    45    28    29 1   
    46    28    30 1   
    47    28    55 1   
    48    29    56 1   
    49    30    31 1   
    50    30    32 1   
    51    30    57 1   
    52    31    58 1   
    53    32    33 1   
    54    32    59 1   
    55    32    60 1   
    56    33    61 1   
    57    34    35 1   
    58    34    39 1   
    59    34    62 1   
    60    35    36 1   
    61    35    63 1   
    62    36    37 2   
    63    36    38 1   
    64    38    64 1   
    65    38    65 1   
    66    38    66 1   
    67    39    40 1   
    68    39    41 1   
    69    39    67 1   
    70    40    68 1   
    71    41    69 1   
    72    41    70 1   
@<TRIPOS>SUBSTRUCTURE
     1 NCC         1 TEMP              0 ****  ****    0 ROOT
