@<TRIPOS>MOLECULE
NCD
   18    17     1     0     0
SMALL
No Charge or Current Charge


@<TRIPOS>ATOM
      1 C6          -0.6670    -0.1950    -0.1610 c3         1 NCD      -0.015300
      2 C61         -1.9100     0.0640    -1.0730 c          1 NCD       0.709000
      3 O61         -2.2460     1.2200    -1.2980 o          1 NCD      -0.758500
      4 O62         -2.4560    -0.8990    -1.5960 o          1 NCD      -0.758500
      5 N1           0.5100     0.5340    -0.6870 ns         1 NCD      -0.427900
      6 C2           1.7430    -0.0120    -0.9190 c          1 NCD       0.624100
      7 O2           2.0320    -1.1820    -0.7490 o          1 NCD      -0.676100
      8 N3           2.6390     0.8750    -1.3850 nt         1 NCD      -0.607000
      9 C5          -0.9530     0.1450     1.3300 c3         1 NCD      -0.198400
     10 C4           0.1820    -0.3350     2.2500 c          1 NCD       0.711000
     11 O4           0.1360    -1.4820     2.6690 o          1 NCD      -0.768500
     12 O5           1.0700     0.4510     2.5420 o          1 NCD      -0.768500
     13 H61         -0.4640    -1.2720    -0.2260 h1         1 NCD       0.079700
     14 H11          0.3990     1.5170    -0.8990 hn         1 NCD       0.283500
     15 H31          3.5770     0.5650    -1.5890 hn         1 NCD       0.261000
     16 H32          2.3780     1.8400    -1.5200 hn         1 NCD       0.261000
     17 H51         -1.0620     1.2350     1.3850 hc         1 NCD       0.026200
     18 H52         -1.8750    -0.3990     1.5690 hc         1 NCD       0.026200
@<TRIPOS>BOND
     1     1     2 1   
     2     1     5 1   
     3     1     9 1   
     4     1    13 1   
     5     2     3 1   
     6     2     4 1   
     7     5     6 1   
     8     5    14 1   
     9     6     7 2   
    10     6     8 1   
    11     8    15 1   
    12     8    16 1   
    13     9    10 1   
    14     9    17 1   
    15     9    18 1   
    16    10    11 1   
    17    10    12 1   
@<TRIPOS>SUBSTRUCTURE
     1 NCD         1 TEMP              0 ****  ****    0 ROOT
