@<TRIPOS>MOLECULE
NCD
   18    17     1     0     0
SMALL
abcg2


@<TRIPOS>ATOM
      1 C6          -0.4660    -0.3080    -0.0230 c3         1 NCD      -0.015300
      2 C61         -1.5260    -0.1220    -1.1340 c          1 NCD       0.709000
      3 O61         -1.3750     0.8240    -1.9290 o          1 NCD      -0.758500
      4 O62         -2.4720    -0.9360    -1.1080 o          1 NCD      -0.758500
      5 N1           0.7760     0.3800    -0.2950 ns         1 NCD      -0.427900
      6 C2           1.5260     0.0420    -1.3710 c          1 NCD       0.624100
      7 O2           1.3720    -1.0070    -1.9910 o          1 NCD      -0.676100
      8 N3           2.4830     0.9560    -1.7230 nt         1 NCD      -0.607000
      9 C5          -1.0140     0.1890     1.3100 c3         1 NCD      -0.198400
     10 C4          -0.0950    -0.0980     2.5120 c          1 NCD       0.711000
     11 O4           0.4020    -1.2400     2.5780 o          1 NCD      -0.768500
     12 O5           0.0540     0.8220     3.3440 o          1 NCD      -0.768500
     13 H61         -0.2560    -1.3740     0.0810 h1         1 NCD       0.079700
     14 H11          0.8240     1.3410     0.0100 hn         1 NCD       0.283500
     15 H31          3.2270     0.6120    -2.3070 hn         1 NCD       0.261000
     16 H32          2.7800     1.6380    -1.0440 hn         1 NCD       0.261000
     17 H51         -1.2340     1.2600     1.2440 hc         1 NCD       0.026200
     18 H52         -1.9720    -0.3090     1.4890 hc         1 NCD       0.026200
@<TRIPOS>BOND
     1     1     2 1   
     2     1     5 1   
     3     1     9 1   
     4     1    13 1   
     5     2     3 1   
     6     2     4 1   
     7     5     6 1   
     8     5    14 1   
     9     6     7 2   
    10     6     8 1   
    11     8    15 1   
    12     8    16 1   
    13     9    10 1   
    14     9    17 1   
    15     9    18 1   
    16    10    11 1   
    17    10    12 1   
@<TRIPOS>SUBSTRUCTURE
     1 NCD         1 TEMP              0 ****  ****    0 ROOT
