@<TRIPOS>MOLECULE
NCE
   69    73     1     0     0
SMALL
bcc


@<TRIPOS>ATOM
      1 C75        -10.6530     0.7090    -0.2490 c6         1 NCE       0.125050
      2 C72        -11.6680     1.7240     0.2390 c6         1 NCE       0.129650
      3 O32        -11.3480     3.0270    -0.1960 os         1 NCE      -0.401600
      4 C66        -10.0570     3.3940     0.2360 c6         1 NCE       0.129650
      5 C63         -9.0010     2.4170    -0.2460 c6         1 NCE       0.125050
      6 N61         -9.3200     1.0720     0.2000 n3         1 NCE      -0.719600
      7 C58         -8.3450     0.0850    -0.2180 c3         1 NCE       0.176300
      8 C55         -7.0030     0.2670     0.4780 c3         1 NCE      -0.163400
      9 C54         -6.0580    -0.8850     0.2140 c          1 NCE       0.678100
     10 O84         -6.4470    -2.0250     0.0410 o          1 NCE      -0.577100
     11 N52         -4.7450    -0.5200     0.2200 ns         1 NCE      -0.475100
     12 C51         -3.5940    -1.2950     0.0940 ca         1 NCE       0.100600
     13 C85         -2.3900    -0.6370     0.1030 ca         1 NCE      -0.264800
     14 C49         -3.6270    -2.7180    -0.0320 ca         1 NCE      -0.142500
     15 C47         -2.4630    -3.4130    -0.1380 ca         1 NCE      -0.084000
     16 C2          -1.2020    -2.7630    -0.1320 ca         1 NCE      -0.182300
     17 C45          0.0030    -3.4420    -0.2390 ca         1 NCE      -0.040000
     18 C87         -1.1640    -1.3390    -0.0090 ca         1 NCE       0.463100
     19 N1          -0.0240    -0.6470     0.0030 nb         1 NCE      -0.686000
     20 C3           1.1290    -1.3080    -0.1010 ca         1 NCE       0.463100
     21 C4           2.3410    -0.5760    -0.0880 ca         1 NCE      -0.264800
     22 C44          1.1950    -2.7320    -0.2270 ca         1 NCE      -0.182300
     23 C42          2.4680    -3.3490    -0.3330 ca         1 NCE      -0.084000
     24 C40          3.6170    -2.6240    -0.3180 ca         1 NCE      -0.142500
     25 C6           3.5590    -1.2010    -0.1900 ca         1 NCE       0.100600
     26 N7           4.6950    -0.3980    -0.1650 ns         1 NCE      -0.475100
     27 C9           6.0140    -0.7340    -0.2440 c          1 NCE       0.678100
     28 O39          6.4220    -1.8770    -0.3240 o          1 NCE      -0.577100
     29 C10          6.9390     0.4620    -0.2440 c3         1 NCE      -0.163400
     30 C13          8.3390     0.1090     0.2410 c3         1 NCE       0.176300
     31 N16          9.1890     1.2810     0.3400 n3         1 NCE      -0.719600
     32 C36         10.3830     0.9940     1.1160 c6         1 NCE       0.125050
     33 C33         11.2430     2.2370     1.2360 c6         1 NCE       0.129650
     34 O12         11.6010     2.7450    -0.0300 os         1 NCE      -0.401600
     35 C27         10.4500     3.0270    -0.7950 c6         1 NCE       0.129650
     36 C18          9.5710     1.8030    -0.9610 c6         1 NCE       0.125050
     37 H75        -10.9160    -0.2720     0.1550 h1         1 NCE       0.041950
     38 H75A       -10.7100     0.6320    -1.3490 h1         1 NCE       0.041950
     39 H72        -12.6570     1.4810    -0.1530 h1         1 NCE       0.051325
     40 H72A       -11.7210     1.6870     1.3370 h1         1 NCE       0.051325
     41 H66         -9.8490     4.3890    -0.1590 h1         1 NCE       0.051325
     42 H66A       -10.0210     3.4530     1.3330 h1         1 NCE       0.051325
     43 H63         -8.9170     2.4720    -1.3460 h1         1 NCE       0.041950
     44 H63A        -8.0410     2.7340     0.1650 h1         1 NCE       0.041950
     45 H58         -8.7400    -0.9000     0.0380 h1         1 NCE       0.049950
     46 H58A        -8.1980     0.0930    -1.3110 h1         1 NCE       0.049950
     47 H55         -6.5330     1.2100     0.1930 hc         1 NCE       0.068200
     48 H55A        -7.1650     0.3170     1.5600 hc         1 NCE       0.068200
     49 HN52        -4.5710     0.4660     0.3440 hn         1 NCE       0.318000
     50 H85         -2.3490     0.4420     0.1950 ha         1 NCE       0.145000
     51 H49         -4.5650    -3.2450    -0.0420 ha         1 NCE       0.169000
     52 H47         -2.4930    -4.4920    -0.2290 ha         1 NCE       0.136000
     53 H45          0.0140    -4.5230    -0.3300 ha         1 NCE       0.137000
     54 H4           2.2800     0.5030     0.0050 ha         1 NCE       0.145000
     55 H42          2.5180    -4.4270    -0.4280 ha         1 NCE       0.136000
     56 H40          4.5660    -3.1270    -0.4030 ha         1 NCE       0.169000
     57 HN7          4.5050     0.5900    -0.0780 hn         1 NCE       0.318000
     58 H10          6.9640     0.8460    -1.2690 hc         1 NCE       0.068200
     59 H10A         6.5310     1.2660     0.3720 hc         1 NCE       0.068200
     60 H13          8.2630    -0.3300     1.2390 h1         1 NCE       0.049950
     61 H13A         8.7840    -0.6590    -0.4080 h1         1 NCE       0.049950
     62 H36         10.0940     0.6680     2.1180 h1         1 NCE       0.041950
     63 H36A        10.9770     0.1800     0.6660 h1         1 NCE       0.041950
     64 H33         10.7010     2.9990     1.8150 h1         1 NCE       0.051325
     65 H33A        12.1660     2.0030     1.7690 h1         1 NCE       0.051325
     66 H27          9.8650     3.8300    -0.3260 h1         1 NCE       0.051325
     67 H27A        10.7850     3.3820    -1.7720 h1         1 NCE       0.051325
     68 H18         10.1010     1.0420    -1.5610 h1         1 NCE       0.041950
     69 H18A         8.6850     2.0980    -1.5280 h1         1 NCE       0.041950
@<TRIPOS>BOND
     1     1     2 1   
     2     1     6 1   
     3     1    37 1   
     4     1    38 1   
     5     2     3 1   
     6     2    39 1   
     7     2    40 1   
     8     3     4 1   
     9     4     5 1   
    10     4    41 1   
    11     4    42 1   
    12     5     6 1   
    13     5    43 1   
    14     5    44 1   
    15     6     7 1   
    16     7     8 1   
    17     7    45 1   
    18     7    46 1   
    19     8     9 1   
    20     8    47 1   
    21     8    48 1   
    22     9    10 2   
    23     9    11 1   
    24    11    12 1   
    25    11    49 1   
    26    12    13 ar  
    27    12    14 ar  
    28    13    18 ar  
    29    13    50 1   
    30    14    15 ar  
    31    14    51 1   
    32    15    16 ar  
    33    15    52 1   
    34    16    17 ar  
    35    16    18 ar  
    36    17    22 ar  
    37    17    53 1   
    38    18    19 ar  
    39    19    20 ar  
    40    20    21 ar  
    41    20    22 ar  
    42    21    25 ar  
    43    21    54 1   
    44    22    23 ar  
    45    23    24 ar  
    46    23    55 1   
    47    24    25 ar  
    48    24    56 1   
    49    25    26 1   
    50    26    27 1   
    51    26    57 1   
    52    27    28 2   
    53    27    29 1   
    54    29    30 1   
    55    29    58 1   
    56    29    59 1   
    57    30    31 1   
    58    30    60 1   
    59    30    61 1   
    60    31    32 1   
    61    31    36 1   
    62    32    33 1   
    63    32    62 1   
    64    32    63 1   
    65    33    34 1   
    66    33    64 1   
    67    33    65 1   
    68    34    35 1   
    69    35    36 1   
    70    35    66 1   
    71    35    67 1   
    72    36    68 1   
    73    36    69 1   
@<TRIPOS>SUBSTRUCTURE
     1 NCE         1 TEMP              0 ****  ****    0 ROOT
