@<TRIPOS>MOLECULE
NCE
   69    73     1     0     0
SMALL
No Charge or Current Charge


@<TRIPOS>ATOM
      1 C75        -10.0380     1.1270    -0.8530 c6         1 NCE       0.125050
      2 C72        -11.1480     2.2010    -0.6540 c6         1 NCE       0.152850
      3 O32        -10.5590     3.5190    -0.5560 os         1 NCE      -0.448000
      4 C66         -9.6130     3.6240     0.5350 c6         1 NCE       0.152850
      5 C63         -8.4700     2.5780     0.3670 c6         1 NCE       0.125050
      6 N61         -9.0040     1.1830     0.2280 n3         1 NCE      -0.719600
      7 C58         -7.9590     0.1420     0.0580 c3         1 NCE       0.176300
      8 C55         -7.0130    -0.0060     1.2650 c3         1 NCE      -0.163400
      9 C54         -6.0750    -1.1950     1.0600 c          1 NCE       0.611100
     10 O84         -6.4740    -2.3480     1.1740 o          1 NCE      -0.577100
     11 N52         -4.7600    -0.8460     0.7800 ns         1 NCE      -0.149000
     12 C51         -3.5960    -1.6220     0.5230 ca         1 NCE       0.008000
     13 C85         -2.3790    -0.9340     0.3620 ca         1 NCE      -0.181500
     14 C49         -3.6030    -3.0290     0.4130 ca         1 NCE      -0.124500
     15 C47         -2.4110    -3.7250     0.1540 ca         1 NCE      -0.066000
     16 C2          -1.2030    -3.0230     0.0000 ca         1 NCE      -0.117000
     17 C45         -0.0090    -3.7140    -0.2590 ca         1 NCE      -0.022000
     18 C87         -1.1770    -1.6130     0.1020 ca         1 NCE       0.332500
     19 N1          -0.0320    -0.9070    -0.0420 nb         1 NCE      -0.686000
     20 C3           1.1240    -1.5640    -0.2920 ca         1 NCE       0.332500
     21 C4           2.3160    -0.8340    -0.4420 ca         1 NCE      -0.181500
     22 C44          1.1740    -2.9720    -0.4070 ca         1 NCE      -0.117000
     23 C42          2.3930    -3.6230    -0.6660 ca         1 NCE      -0.066000
     24 C40          3.5730    -2.8760    -0.8140 ca         1 NCE      -0.124500
     25 C6           3.5440    -1.4700    -0.7060 ca         1 NCE       0.008000
     26 N7           4.6940    -0.6450    -0.8390 ns         1 NCE      -0.149000
     27 C9           6.0150    -0.9260    -1.1650 c          1 NCE       0.611100
     28 O39          6.4340    -2.0410    -1.4500 o          1 NCE      -0.577100
     29 C10          6.9320     0.2960    -1.1860 c3         1 NCE      -0.163400
     30 C13          7.8740     0.2760     0.0310 c3         1 NCE       0.176300
     31 N16          8.6720     1.5150     0.1980 n3         1 NCE      -0.719600
     32 C36          9.3970     1.5510     1.5070 c6         1 NCE       0.125050
     33 C33         10.2100     2.8670     1.6870 c6         1 NCE       0.152850
     34 O12         11.1190     3.0510     0.5760 os         1 NCE      -0.448000
     35 C27         10.4340     3.1010    -0.6990 c6         1 NCE       0.152850
     36 C18          9.6210     1.7920    -0.9310 c6         1 NCE       0.125050
     37 H75        -10.5110     0.1340    -0.8780 h1         1 NCE       0.041950
     38 H75A        -9.5710     1.2850    -1.8370 h1         1 NCE       0.041950
     39 H72        -11.8460     2.1810    -1.5030 h1         1 NCE       0.051325
     40 H72A       -11.7180     1.9880     0.2630 h1         1 NCE       0.051325
     41 H66         -9.1920     4.6390     0.5510 h1         1 NCE       0.051325
     42 H66A       -10.1370     3.4560     1.4870 h1         1 NCE       0.051325
     43 H63         -7.8730     2.8480    -0.5170 h1         1 NCE       0.041950
     44 H63A        -7.8080     2.6590     1.2410 h1         1 NCE       0.041950
     45 H58         -8.4470    -0.8300    -0.1060 h1         1 NCE       0.049950
     46 H58A        -7.3610     0.3530    -0.8400 h1         1 NCE       0.049950
     47 H55         -6.4270     0.9130     1.3800 hc         1 NCE       0.068200
     48 H55A        -7.6200    -0.1830     2.1590 hc         1 NCE       0.068200
     49 HN52        -4.5970     0.1520     0.7470 hn         1 NCE       0.151500
     50 H85         -2.3610     0.1500     0.4410 ha         1 NCE       0.127000
     51 H49         -4.5180    -3.6030     0.5200 ha         1 NCE       0.151000
     52 H47         -2.4300    -4.8100     0.0720 ha         1 NCE       0.118000
     53 H45         -0.0000    -4.7980    -0.3430 ha         1 NCE       0.119000
     54 H4           2.2800     0.2490    -0.3540 ha         1 NCE       0.127000
     55 H42          2.4290    -4.7070    -0.7520 ha         1 NCE       0.118000
     56 H40          4.4970    -3.4120    -1.0070 ha         1 NCE       0.151000
     57 HN7          4.5150     0.3340    -0.6560 hn         1 NCE       0.151500
     58 H10          7.5290     0.2630    -2.1040 hc         1 NCE       0.068200
     59 H10A         6.3390     1.2170    -1.1520 hc         1 NCE       0.068200
     60 H13          7.2570     0.1260     0.9290 h1         1 NCE       0.049950
     61 H13A         8.5400    -0.5960    -0.0460 h1         1 NCE       0.049950
     62 H36          8.6850     1.4620     2.3400 h1         1 NCE       0.041950
     63 H36A        10.0890     0.6980     1.5830 h1         1 NCE       0.041950
     64 H33          9.5270     3.7260     1.7440 h1         1 NCE       0.051325
     65 H33A        10.7880     2.8260     2.6210 h1         1 NCE       0.051325
     66 H27          9.7590     3.9690    -0.7140 h1         1 NCE       0.051325
     67 H27A        11.1750     3.2290    -1.5010 h1         1 NCE       0.051325
     68 H18         10.3270     0.9560    -1.0510 h1         1 NCE       0.041950
     69 H18A         9.0790     1.8950    -1.8820 h1         1 NCE       0.041950
@<TRIPOS>BOND
     1     1     2 1   
     2     1     6 1   
     3     1    37 1   
     4     1    38 1   
     5     2     3 1   
     6     2    39 1   
     7     2    40 1   
     8     3     4 1   
     9     4     5 1   
    10     4    41 1   
    11     4    42 1   
    12     5     6 1   
    13     5    43 1   
    14     5    44 1   
    15     6     7 1   
    16     7     8 1   
    17     7    45 1   
    18     7    46 1   
    19     8     9 1   
    20     8    47 1   
    21     8    48 1   
    22     9    10 2   
    23     9    11 1   
    24    11    12 1   
    25    11    49 1   
    26    12    13 ar  
    27    12    14 ar  
    28    13    18 ar  
    29    13    50 1   
    30    14    15 ar  
    31    14    51 1   
    32    15    16 ar  
    33    15    52 1   
    34    16    17 ar  
    35    16    18 ar  
    36    17    22 ar  
    37    17    53 1   
    38    18    19 ar  
    39    19    20 ar  
    40    20    21 ar  
    41    20    22 ar  
    42    21    25 ar  
    43    21    54 1   
    44    22    23 ar  
    45    23    24 ar  
    46    23    55 1   
    47    24    25 ar  
    48    24    56 1   
    49    25    26 1   
    50    26    27 1   
    51    26    57 1   
    52    27    28 2   
    53    27    29 1   
    54    29    30 1   
    55    29    58 1   
    56    29    59 1   
    57    30    31 1   
    58    30    60 1   
    59    30    61 1   
    60    31    32 1   
    61    31    36 1   
    62    32    33 1   
    63    32    62 1   
    64    32    63 1   
    65    33    34 1   
    66    33    64 1   
    67    33    65 1   
    68    34    35 1   
    69    35    36 1   
    70    35    66 1   
    71    35    67 1   
    72    36    68 1   
    73    36    69 1   
@<TRIPOS>SUBSTRUCTURE
     1 NCE         1 TEMP              0 ****  ****    0 ROOT
