@<TRIPOS>MOLECULE
NCF
   34    35     1     0     0
SMALL
No Charge or Current Charge


@<TRIPOS>ATOM
      1 S1          -3.3180     1.7880    -0.6970 ss         1 NCF      -0.550000
      2 C2          -4.5480     1.2590     0.5430 c6         1 NCF       0.082600
      3 C3          -4.6660    -0.2680     0.5110 c6         1 NCF      -0.168700
      4 C4          -3.3240    -1.0300     0.6410 ce         1 NCF       0.391300
      5 C5          -3.4220    -2.5200     1.0690 c          1 NCF       0.631700
      6 O4A         -2.3970    -3.1840     1.2160 o          1 NCF      -0.691500
      7 O4B         -4.5290    -3.0230     1.2520 o          1 NCF      -0.691500
      8 N5          -2.1370    -0.5010     0.4220 n2         1 NCF      -0.626900
      9 C6          -1.8990     0.9100     0.0670 c6         1 NCF       0.285500
     10 C7          -0.6640     0.9950    -0.8770 c3         1 NCF       0.009700
     11 C8          -0.2640     2.4650    -1.1320 c          1 NCF       0.590900
     12 O9           0.6290     3.0540    -0.5260 o          1 NCF      -0.518100
     13 N10          0.4980     0.1970    -0.4010 ns         1 NCF      -0.462900
     14 C11          1.5810    -0.1430    -1.1780 c          1 NCF       0.596100
     15 O12          1.6970     0.2520    -2.3310 o          1 NCF      -0.641100
     16 C13          2.6340    -1.0250    -0.4910 c3         1 NCF      -0.087100
     17 C14          3.8260    -0.2530     0.0250 cc         1 NCF      -0.191300
     18 C15          4.1930    -0.0470     1.3310 cd         1 NCF      -0.144000
     19 C16          5.3710     0.7330     1.4750 cd         1 NCF      -0.137000
     20 C17          5.9140     1.1290     0.2800 cc         1 NCF      -0.276000
     21 S19          4.9590     0.5350    -1.0770 ss         1 NCF       0.265000
     22 H2C1        -4.2200     1.6000     1.5360 h1         1 NCF       0.057200
     23 H2C2        -5.5160     1.7270     0.3130 h1         1 NCF       0.057200
     24 H3C1        -5.3570    -0.5850     1.3020 hc         1 NCF       0.078700
     25 H3C2        -5.1320    -0.5640    -0.4380 hc         1 NCF       0.078700
     26 H6          -1.6620     1.4580     0.9930 h2         1 NCF       0.082700
     27 H7          -0.9710     0.5860    -1.8480 h1         1 NCF       0.073700
     28 H8          -0.8390     2.9790    -1.9340 h4         1 NCF      -0.003800
     29 H10          0.4610    -0.1960     0.5330 hn         1 NCF       0.366500
     30 H131         2.1700    -1.5430     0.3560 hc         1 NCF       0.075700
     31 H132         2.9860    -1.7660    -1.2180 hc         1 NCF       0.075700
     32 H15          3.6370    -0.4420     2.1770 ha         1 NCF       0.130000
     33 H16          5.8010     0.9900     2.4390 ha         1 NCF       0.122000
     34 H17          6.7980     1.7240     0.0910 h4         1 NCF       0.138000
@<TRIPOS>BOND
     1     1     2 1   
     2     1     9 1   
     3     2     3 1   
     4     2    22 1   
     5     2    23 1   
     6     3     4 1   
     7     3    24 1   
     8     3    25 1   
     9     4     5 1   
    10     4     8 2   
    11     5     6 1   
    12     5     7 1   
    13     8     9 1   
    14     9    10 1   
    15     9    26 1   
    16    10    11 1   
    17    10    13 1   
    18    10    27 1   
    19    11    12 2   
    20    11    28 1   
    21    13    14 1   
    22    13    29 1   
    23    14    15 2   
    24    14    16 1   
    25    16    17 1   
    26    16    30 1   
    27    16    31 1   
    28    17    18 2   
    29    17    21 1   
    30    18    19 1   
    31    18    32 1   
    32    19    20 2   
    33    19    33 1   
    34    20    21 1   
    35    20    34 1   
@<TRIPOS>SUBSTRUCTURE
     1 NCF         1 TEMP              0 ****  ****    0 ROOT
