@<TRIPOS>MOLECULE
NCF
   34    35     1     0     0
SMALL
bcc


@<TRIPOS>ATOM
      1 S1          -3.3840     1.7100    -0.8410 ss         1 NCF      -0.454200
      2 C2          -4.6690     1.1690     0.3140 c6         1 NCF       0.034700
      3 C3          -4.7120    -0.3450     0.3700 c6         1 NCF      -0.168700
      4 C4          -3.3750    -0.9970     0.5940 ce         1 NCF       0.391300
      5 C5          -3.3940    -2.4890     0.9880 c          1 NCF       0.842300
      6 O4A         -2.3490    -2.9630     1.4530 o          1 NCF      -0.796800
      7 O4B         -4.4770    -3.0680     0.7810 o          1 NCF      -0.796800
      8 N5          -2.2400    -0.4490     0.4750 n2         1 NCF      -0.626900
      9 C6          -2.0240     0.9020     0.0690 c6         1 NCF       0.237600
     10 C7          -0.7700     0.9540    -0.8220 c3         1 NCF       0.009700
     11 C8          -0.3870     2.4130    -1.0400 c          1 NCF       0.590900
     12 O9           0.0720     3.1020    -0.1670 o          1 NCF      -0.518100
     13 N10          0.2890     0.2380    -0.1610 ns         1 NCF      -0.529900
     14 C11          1.5270     0.2470    -0.6700 c          1 NCF       0.663100
     15 O12          1.8350     0.9610    -1.6150 o          1 NCF      -0.641100
     16 C13          2.5140    -0.7010    -0.0230 c3         1 NCF      -0.087100
     17 C14          3.8750    -0.1170     0.1560 cc         1 NCF      -0.046400
     18 C15          4.6200    -0.1210     1.2980 cd         1 NCF      -0.162000
     19 C16          5.9070     0.4590     1.1290 cd         1 NCF      -0.155000
     20 C17          6.1180     0.8890    -0.1450 cc         1 NCF      -0.149100
     21 S19          4.7500     0.6090    -1.1400 ss         1 NCF      -0.024800
     22 H2C1        -4.4680     1.6000     1.2970 h1         1 NCF       0.057200
     23 H2C2        -5.6150     1.5770    -0.0380 h1         1 NCF       0.057200
     24 H3C1        -5.3830    -0.6560     1.1740 hc         1 NCF       0.078700
     25 H3C2        -5.1460    -0.7440    -0.5500 hc         1 NCF       0.078700
     26 H6          -1.8160     1.4890     0.9710 h2         1 NCF       0.082700
     27 H7          -1.0030     0.5010    -1.7920 h1         1 NCF       0.073700
     28 H8          -0.6070     2.8120    -2.0430 h4         1 NCF      -0.003800
     29 H10          0.0080    -0.4620     0.5140 hn         1 NCF       0.366500
     30 H131         2.1490    -1.0430     0.9460 hc         1 NCF       0.075700
     31 H132         2.5600    -1.5870    -0.6670 hc         1 NCF       0.075700
     32 H15          4.2600    -0.5330     2.2310 ha         1 NCF       0.148000
     33 H16          6.6350     0.5550     1.9220 ha         1 NCF       0.140000
     34 H17          6.9920     1.3780    -0.5460 h4         1 NCF       0.156000
@<TRIPOS>BOND
     1     1     2 1   
     2     1     9 1   
     3     2     3 1   
     4     2    22 1   
     5     2    23 1   
     6     3     4 1   
     7     3    24 1   
     8     3    25 1   
     9     4     5 1   
    10     4     8 2   
    11     5     6 1   
    12     5     7 1   
    13     8     9 1   
    14     9    10 1   
    15     9    26 1   
    16    10    11 1   
    17    10    13 1   
    18    10    27 1   
    19    11    12 2   
    20    11    28 1   
    21    13    14 1   
    22    13    29 1   
    23    14    15 2   
    24    14    16 1   
    25    16    17 1   
    26    16    30 1   
    27    16    31 1   
    28    17    18 2   
    29    17    21 1   
    30    18    19 1   
    31    18    32 1   
    32    19    20 2   
    33    19    33 1   
    34    20    21 1   
    35    20    34 1   
@<TRIPOS>SUBSTRUCTURE
     1 NCF         1 TEMP              0 ****  ****    0 ROOT
