@<TRIPOS>MOLECULE
NCI
   85    89     1     0     0
SMALL
No Charge or Current Charge


@<TRIPOS>ATOM
      1 O39         -6.4030    -2.1710    -1.5220 o          1 NCI      -0.578100
      2 C9          -6.0000    -1.0380    -1.2880 c          1 NCI       0.610100
      3 C10         -6.9220     0.1760    -1.4100 c3         1 NCI      -0.163400
      4 C13         -7.9040     0.2230    -0.2210 c3         1 NCI       0.176300
      5 N16         -8.9900     1.2410    -0.3430 n3         1 NCI      -0.726100
      6 C18        -10.0270     1.1460     0.7490 c6         1 NCI       0.191500
      7 C20        -10.6580    -0.2780     0.9320 c3         1 NCI      -0.074400
      8 C23        -11.3040    -0.9070    -0.3250 c3         1 NCI      -0.080100
      9 C27        -11.1620     2.1960     0.5450 c6         1 NCI      -0.075400
     10 C30        -10.6050     3.6290     0.4450 c6         1 NCI      -0.075400
     11 C33         -9.5520     3.6910    -0.6760 c6         1 NCI      -0.076400
     12 C36         -8.4480     2.6340    -0.4490 c6         1 NCI       0.167300
     13 N7          -4.6930    -0.7300    -0.9330 ns         1 NCI      -0.151000
     14 C6          -3.5450    -1.5390    -0.7110 ca         1 NCI       0.009000
     15 C40         -3.5680    -2.9500    -0.7270 ca         1 NCI      -0.125000
     16 C42         -2.3910    -3.6800    -0.4940 ca         1 NCI      -0.067000
     17 C4          -2.3270    -0.8820    -0.4520 ca         1 NCI      -0.183000
     18 C3          -1.1390    -1.5950    -0.2180 ca         1 NCI       0.333000
     19 N1           0.0070    -0.9180     0.0240 nb         1 NCI      -0.686000
     20 C44         -1.1820    -3.0080    -0.2410 ca         1 NCI      -0.118000
     21 C45         -0.0020    -3.7330    -0.0080 ca         1 NCI      -0.022000
     22 C2           1.1820    -3.0210     0.2410 ca         1 NCI      -0.118000
     23 C47          2.3860    -3.7060     0.4780 ca         1 NCI      -0.067000
     24 C49          3.5680    -2.9890     0.7270 ca         1 NCI      -0.125000
     25 C51          3.5540    -1.5780     0.7430 ca         1 NCI       0.009000
     26 C85          2.3410    -0.9070     0.5000 ca         1 NCI      -0.183000
     27 C87          1.1480    -1.6070     0.2490 ca         1 NCI       0.333000
     28 N52          4.7070    -0.7810     0.9830 ns         1 NCI      -0.151000
     29 C54          6.0130    -1.1060     1.3300 c          1 NCI       0.610100
     30 O84          6.4090    -2.2460     1.5370 o          1 NCI      -0.578100
     31 C55          6.9420     0.0990     1.4800 c3         1 NCI      -0.163400
     32 C58          7.9230     0.1690     0.2910 c3         1 NCI       0.176300
     33 N61          9.0150     1.1770     0.4360 n3         1 NCI      -0.726100
     34 C63         10.0500     1.1020    -0.6590 c6         1 NCI       0.191500
     35 C77         10.6730    -0.3210    -0.8770 c3         1 NCI      -0.074400
     36 C80         11.3170    -0.9840     0.3640 c3         1 NCI      -0.080100
     37 C66         11.1920     2.1390    -0.4320 c6         1 NCI      -0.075400
     38 C69         10.6440     3.5730    -0.2970 c6         1 NCI      -0.075400
     39 C72          9.5930     3.6140     0.8260 c6         1 NCI      -0.076400
     40 C75          8.4820     2.5700     0.5760 c6         1 NCI       0.167300
     41 H10         -6.3210     1.0910    -1.4240 hc         1 NCI       0.067950
     42 H10A        -7.5040     0.0860    -2.3340 hc         1 NCI       0.067950
     43 H13         -8.3410    -0.7800    -0.1490 h1         1 NCI       0.049200
     44 H13A        -7.3340     0.3890     0.7050 h1         1 NCI       0.049200
     45 H18         -9.5400     1.3860     1.7070 h1         1 NCI       0.019700
     46 H20         -9.9090    -0.9740     1.3250 hc         1 NCI       0.039700
     47 H20A       -11.4250    -0.2300     1.7150 hc         1 NCI       0.039700
     48 H23        -11.6730    -1.9140    -0.0970 hc         1 NCI       0.033200
     49 H23A       -12.1540    -0.3100    -0.6750 hc         1 NCI       0.033200
     50 H23B       -10.5790    -0.9890    -1.1430 hc         1 NCI       0.033200
     51 H27        -11.7260     1.9680    -0.3690 hc         1 NCI       0.046950
     52 H27A       -11.8770     2.1420     1.3760 hc         1 NCI       0.046950
     53 H30        -11.4180     4.3400     0.2420 hc         1 NCI       0.039700
     54 H30A       -10.1530     3.9240     1.4020 hc         1 NCI       0.039700
     55 H33        -10.0300     3.5190    -1.6500 hc         1 NCI       0.046200
     56 H33A        -9.1050     4.6930    -0.7170 hc         1 NCI       0.046200
     57 H36         -7.8900     2.8910     0.4640 h1         1 NCI       0.026700
     58 H36A        -7.7460     2.7180    -1.2890 h1         1 NCI       0.026700
     59 HN7         -4.5240     0.2590    -0.8020 hn         1 NCI       0.151500
     60 H40         -4.4840    -3.5020    -0.9110 ha         1 NCI       0.151500
     61 H42         -2.4220    -4.7680    -0.5090 ha         1 NCI       0.118000
     62 H4          -2.2970     0.2040    -0.4340 ha         1 NCI       0.127000
     63 H45         -0.0060    -4.8210    -0.0210 ha         1 NCI       0.119000
     64 H47          2.4100    -4.7940     0.4680 ha         1 NCI       0.118000
     65 H49          4.4810    -3.5510     0.8990 ha         1 NCI       0.151500
     66 H85          2.3170     0.1790     0.5070 ha         1 NCI       0.127000
     67 HN52         4.5440     0.2110     0.8750 hn         1 NCI       0.151500
     68 H55          6.3470     1.0180     1.5160 hc         1 NCI       0.067950
     69 H55A         7.5240    -0.0160     2.4010 hc         1 NCI       0.067950
     70 H58          8.3540    -0.8350     0.1950 h1         1 NCI       0.049200
     71 H58A         7.3530     0.3600    -0.6300 h1         1 NCI       0.049200
     72 H63          9.5640     1.3670    -1.6100 h1         1 NCI       0.019700
     73 H77          9.9190    -1.0030    -1.2850 hc         1 NCI       0.039700
     74 H77A        11.4390    -0.2600    -1.6600 hc         1 NCI       0.039700
     75 H80         10.5920    -1.0810     1.1810 hc         1 NCI       0.033200
     76 H80A        11.6780    -1.9880     0.1110 hc         1 NCI       0.033200
     77 H80B        12.1700    -0.4010     0.7270 hc         1 NCI       0.033200
     78 H66         11.7560     1.8860     0.4750 hc         1 NCI       0.046950
     79 H66A        11.9060     2.1010    -1.2650 hc         1 NCI       0.046950
     80 H69         11.4610     4.2740    -0.0790 hc         1 NCI       0.039700
     81 H69A        10.1920     3.8930    -1.2460 hc         1 NCI       0.039700
     82 H72         10.0710     3.4170     1.7950 hc         1 NCI       0.046200
     83 H72A         9.1520     4.6180     0.8910 hc         1 NCI       0.046200
     84 H75          7.9250     2.8520    -0.3300 h1         1 NCI       0.026700
     85 H75A         7.7820     2.6390     1.4190 h1         1 NCI       0.026700
@<TRIPOS>BOND
     1     1     2 2   
     2     2     3 1   
     3     2    13 1   
     4     3     4 1   
     5     3    41 1   
     6     3    42 1   
     7     4     5 1   
     8     4    43 1   
     9     4    44 1   
    10     5     6 1   
    11     5    12 1   
    12     6     7 1   
    13     6     9 1   
    14     6    45 1   
    15     7     8 1   
    16     7    46 1   
    17     7    47 1   
    18     8    48 1   
    19     8    49 1   
    20     8    50 1   
    21     9    10 1   
    22     9    51 1   
    23     9    52 1   
    24    10    11 1   
    25    10    53 1   
    26    10    54 1   
    27    11    12 1   
    28    11    55 1   
    29    11    56 1   
    30    12    57 1   
    31    12    58 1   
    32    13    14 1   
    33    13    59 1   
    34    14    15 ar  
    35    14    17 ar  
    36    15    16 ar  
    37    15    60 1   
    38    16    20 ar  
    39    16    61 1   
    40    17    18 ar  
    41    17    62 1   
    42    18    19 ar  
    43    18    20 ar  
    44    19    27 ar  
    45    20    21 ar  
    46    21    22 ar  
    47    21    63 1   
    48    22    23 ar  
    49    22    27 ar  
    50    23    24 ar  
    51    23    64 1   
    52    24    25 ar  
    53    24    65 1   
    54    25    26 ar  
    55    25    28 1   
    56    26    27 ar  
    57    26    66 1   
    58    28    29 1   
    59    28    67 1   
    60    29    30 2   
    61    29    31 1   
    62    31    32 1   
    63    31    68 1   
    64    31    69 1   
    65    32    33 1   
    66    32    70 1   
    67    32    71 1   
    68    33    34 1   
    69    33    40 1   
    70    34    35 1   
    71    34    37 1   
    72    34    72 1   
    73    35    36 1   
    74    35    73 1   
    75    35    74 1   
    76    36    75 1   
    77    36    76 1   
    78    36    77 1   
    79    37    38 1   
    80    37    78 1   
    81    37    79 1   
    82    38    39 1   
    83    38    80 1   
    84    38    81 1   
    85    39    40 1   
    86    39    82 1   
    87    39    83 1   
    88    40    84 1   
    89    40    85 1   
@<TRIPOS>SUBSTRUCTURE
     1 NCI         1 TEMP              0 ****  ****    0 ROOT
