@<TRIPOS>MOLECULE
NCI
   85    89     1     0     0
SMALL
abcg2


@<TRIPOS>ATOM
      1 O39         -6.4250    -1.9580     0.2020 o          1 NCI      -0.578100
      2 C9          -6.0360    -0.8060     0.1820 c          1 NCI       0.610100
      3 C10         -6.9810     0.3740     0.1230 c3         1 NCI      -0.163400
      4 C13         -8.3960     0.0080     0.5490 c3         1 NCI       0.176300
      5 N16         -9.3280     1.1010     0.3310 n3         1 NCI      -0.726100
      6 C18        -10.7190     0.6610     0.2060 c6         1 NCI       0.191500
      7 C20        -10.9190    -0.3810    -0.9030 c3         1 NCI      -0.074400
      8 C23        -10.3380     0.0030    -2.2580 c3         1 NCI      -0.080100
      9 C27        -11.6300     1.8630    -0.0540 c6         1 NCI      -0.075400
     10 C30        -11.4870     2.9450     1.0050 c6         1 NCI      -0.075400
     11 C33        -10.0250     3.3400     1.1220 c6         1 NCI      -0.076400
     12 C36         -9.1740     2.1080     1.3720 c6         1 NCI       0.167300
     13 N7          -4.7190    -0.4470     0.1830 ns         1 NCI      -0.151000
     14 C6          -3.5740    -1.2370     0.1450 ca         1 NCI       0.009000
     15 C40         -3.6210    -2.6660     0.1410 ca         1 NCI      -0.125000
     16 C42         -2.4660    -3.3800     0.0980 ca         1 NCI      -0.067000
     17 C4          -2.3610    -0.5950     0.1100 ca         1 NCI      -0.183000
     18 C3          -1.1430    -1.3170     0.0660 ca         1 NCI       0.333000
     19 N1           0.0070    -0.6400     0.0330 nb         1 NCI      -0.686000
     20 C44         -1.1980    -2.7450     0.0580 ca         1 NCI      -0.118000
     21 C45         -0.0020    -3.4460     0.0120 ca         1 NCI      -0.022000
     22 C2           1.1990    -2.7520    -0.0250 ca         1 NCI      -0.118000
     23 C47          2.4630    -3.3940    -0.0740 ca         1 NCI      -0.067000
     24 C49          3.6220    -2.6870    -0.1080 ca         1 NCI      -0.125000
     25 C51          3.5840    -1.2570    -0.0930 ca         1 NCI       0.009000
     26 C85          2.3750    -0.6080    -0.0470 ca         1 NCI      -0.183000
     27 C87          1.1520    -1.3230    -0.0110 ca         1 NCI       0.333000
     28 N52          4.7350    -0.4740    -0.1160 ns         1 NCI      -0.151000
     29 C54          6.0480    -0.8420    -0.1720 c          1 NCI       0.610100
     30 O84          6.4250    -1.9940    -0.2670 o          1 NCI      -0.578100
     31 C55          7.0030     0.3270    -0.0750 c3         1 NCI      -0.163400
     32 C58          8.4210    -0.0410    -0.4890 c3         1 NCI       0.176300
     33 N61          9.3540     1.0470    -0.2490 n3         1 NCI      -0.726100
     34 C63         10.7420     0.5980    -0.1170 c6         1 NCI       0.191500
     35 C77         10.9270    -0.4550     0.9840 c3         1 NCI      -0.074400
     36 C80         10.3340    -0.0830     2.3370 c3         1 NCI      -0.080100
     37 C66         11.6580     1.7920     0.1590 c6         1 NCI      -0.075400
     38 C69         11.5310     2.8820    -0.8930 c6         1 NCI      -0.075400
     39 C72         10.0720     3.2880    -1.0180 c6         1 NCI      -0.076400
     40 C75          9.2150     2.0630    -1.2840 c6         1 NCI       0.167300
     41 H10         -6.5800     1.1990     0.7150 hc         1 NCI       0.067950
     42 H10A        -7.0030     0.7290    -0.9130 hc         1 NCI       0.067950
     43 H13         -8.7060    -0.8530    -0.0370 h1         1 NCI       0.049200
     44 H13A        -8.3990    -0.3230     1.6010 h1         1 NCI       0.049200
     45 H18        -11.0540     0.1970     1.1540 h1         1 NCI       0.019700
     46 H20        -10.5210    -1.3510    -0.5990 hc         1 NCI       0.039700
     47 H20A       -11.9970    -0.5360    -1.0010 hc         1 NCI       0.039700
     48 H23        -10.5610    -0.7640    -3.0010 hc         1 NCI       0.033200
     49 H23A       -10.7500     0.9430    -2.6270 hc         1 NCI       0.033200
     50 H23B        -9.2540     0.1160    -2.2170 hc         1 NCI       0.033200
     51 H27        -11.3920     2.2870    -1.0340 hc         1 NCI       0.046950
     52 H27A       -12.6620     1.5070    -0.1030 hc         1 NCI       0.046950
     53 H30        -12.1110     3.8070     0.7590 hc         1 NCI       0.039700
     54 H30A       -11.8390     2.5640     1.9700 hc         1 NCI       0.039700
     55 H33         -9.6950     3.8280     0.2000 hc         1 NCI       0.046200
     56 H33A        -9.8710     4.0530     1.9350 hc         1 NCI       0.046200
     57 H36         -9.4360     1.6900     2.3620 h1         1 NCI       0.026700
     58 H36A        -8.1240     2.4020     1.4300 h1         1 NCI       0.026700
     59 HN7         -4.5430     0.5470     0.1730 hn         1 NCI       0.151500
     60 H40         -4.5650    -3.1820     0.1720 ha         1 NCI       0.151500
     61 H42         -2.5070    -4.4630     0.0940 ha         1 NCI       0.118000
     62 H4          -2.3090     0.4880     0.1140 ha         1 NCI       0.127000
     63 H45         -0.0050    -4.5310     0.0020 ha         1 NCI       0.119000
     64 H47          2.4980    -4.4770    -0.0830 ha         1 NCI       0.118000
     65 H49          4.5630    -3.2080    -0.1460 ha         1 NCI       0.151500
     66 H85          2.3300     0.4750    -0.0350 ha         1 NCI       0.127000
     67 HN52         4.5660     0.5200    -0.0550 hn         1 NCI       0.151500
     68 H55          6.6140     1.1650    -0.6590 hc         1 NCI       0.067950
     69 H55A         7.0110     0.6660     0.9670 hc         1 NCI       0.067950
     70 H58          8.7220    -0.9070     0.0930 h1         1 NCI       0.049200
     71 H58A         8.4350    -0.3610    -1.5440 h1         1 NCI       0.049200
     72 H63         11.0820     0.1400    -1.0670 h1         1 NCI       0.019700
     73 H77         10.5290    -1.4220     0.6660 hc         1 NCI       0.039700
     74 H77A        12.0040    -0.6160     1.0910 hc         1 NCI       0.039700
     75 H80          9.2510     0.0350     2.2850 hc         1 NCI       0.033200
     76 H80A        10.5460    -0.8590     3.0730 hc         1 NCI       0.033200
     77 H80B        10.7460     0.8510     2.7200 hc         1 NCI       0.033200
     78 H66         11.4150     2.2110     1.1410 hc         1 NCI       0.046950
     79 H66A        12.6870     1.4290     0.2140 hc         1 NCI       0.046950
     80 H69         12.1580     3.7390    -0.6360 hc         1 NCI       0.039700
     81 H69A        11.8880     2.5060    -1.8580 hc         1 NCI       0.039700
     82 H72          9.7390     3.7710    -0.0950 hc         1 NCI       0.046200
     83 H72A         9.9290     4.0080    -1.8270 hc         1 NCI       0.046200
     84 H75          9.4810     1.6510    -2.2750 h1         1 NCI       0.026700
     85 H75A         8.1680     2.3650    -1.3470 h1         1 NCI       0.026700
@<TRIPOS>BOND
     1     1     2 2   
     2     2     3 1   
     3     2    13 1   
     4     3     4 1   
     5     3    41 1   
     6     3    42 1   
     7     4     5 1   
     8     4    43 1   
     9     4    44 1   
    10     5     6 1   
    11     5    12 1   
    12     6     7 1   
    13     6     9 1   
    14     6    45 1   
    15     7     8 1   
    16     7    46 1   
    17     7    47 1   
    18     8    48 1   
    19     8    49 1   
    20     8    50 1   
    21     9    10 1   
    22     9    51 1   
    23     9    52 1   
    24    10    11 1   
    25    10    53 1   
    26    10    54 1   
    27    11    12 1   
    28    11    55 1   
    29    11    56 1   
    30    12    57 1   
    31    12    58 1   
    32    13    14 1   
    33    13    59 1   
    34    14    15 ar  
    35    14    17 ar  
    36    15    16 ar  
    37    15    60 1   
    38    16    20 ar  
    39    16    61 1   
    40    17    18 ar  
    41    17    62 1   
    42    18    19 ar  
    43    18    20 ar  
    44    19    27 ar  
    45    20    21 ar  
    46    21    22 ar  
    47    21    63 1   
    48    22    23 ar  
    49    22    27 ar  
    50    23    24 ar  
    51    23    64 1   
    52    24    25 ar  
    53    24    65 1   
    54    25    26 ar  
    55    25    28 1   
    56    26    27 ar  
    57    26    66 1   
    58    28    29 1   
    59    28    67 1   
    60    29    30 2   
    61    29    31 1   
    62    31    32 1   
    63    31    68 1   
    64    31    69 1   
    65    32    33 1   
    66    32    70 1   
    67    32    71 1   
    68    33    34 1   
    69    33    40 1   
    70    34    35 1   
    71    34    37 1   
    72    34    72 1   
    73    35    36 1   
    74    35    73 1   
    75    35    74 1   
    76    36    75 1   
    77    36    76 1   
    78    36    77 1   
    79    37    38 1   
    80    37    78 1   
    81    37    79 1   
    82    38    39 1   
    83    38    80 1   
    84    38    81 1   
    85    39    40 1   
    86    39    82 1   
    87    39    83 1   
    88    40    84 1   
    89    40    85 1   
@<TRIPOS>SUBSTRUCTURE
     1 NCI         1 TEMP              0 ****  ****    0 ROOT
