@<TRIPOS>MOLECULE
NCJ
   79    83     1     0     0
SMALL
abcg2


@<TRIPOS>ATOM
      1 O39         -6.4190    -1.9150    -0.3130 o          1 NCJ      -0.579100
      2 C9          -6.0360    -0.7660    -0.1950 c          1 NCJ       0.609600
      3 C10         -6.9830     0.4140    -0.2290 c3         1 NCJ      -0.162900
      4 C13         -8.3860     0.0360     0.2320 c3         1 NCJ       0.175300
      5 N16         -9.3380     1.1150     0.0350 n3         1 NCJ      -0.724100
      6 C18        -10.7320     0.6590     0.0270 c6         1 NCJ       0.187500
      7 C20        -10.9880    -0.4190    -1.0220 c3         1 NCJ      -0.094100
      8 C27        -11.6620     1.8430    -0.2470 c6         1 NCJ      -0.075400
      9 C30        -11.4690     2.9780     0.7450 c6         1 NCJ      -0.074400
     10 C33        -10.0040     3.3800     0.7710 c6         1 NCJ      -0.076400
     11 C36         -9.1350     2.1610     1.0300 c6         1 NCJ       0.165800
     12 N7          -4.7280    -0.4120    -0.0490 ns         1 NCJ      -0.149500
     13 C6          -3.5810    -1.2020    -0.0490 ca         1 NCJ       0.007500
     14 C40         -3.6260    -2.6310    -0.0590 ca         1 NCJ      -0.122500
     15 C42         -2.4690    -3.3430    -0.0470 ca         1 NCJ      -0.068000
     16 C4          -2.3690    -0.5570    -0.0210 ca         1 NCJ      -0.181500
     17 C3          -1.1490    -1.2780    -0.0080 ca         1 NCJ       0.332000
     18 N1          -0.0000    -0.6000     0.0150 nb         1 NCJ      -0.686000
     19 C44         -1.2010    -2.7070    -0.0230 ca         1 NCJ      -0.117000
     20 C45         -0.0030    -3.4060    -0.0100 ca         1 NCJ      -0.023000
     21 C2           1.1980    -2.7090     0.0150 ca         1 NCJ      -0.117000
     22 C47          2.4640    -3.3480     0.0280 ca         1 NCJ      -0.068000
     23 C49          3.6220    -2.6380     0.0560 ca         1 NCJ      -0.122500
     24 C51          3.5780    -1.2090     0.0760 ca         1 NCJ       0.007500
     25 C85          2.3680    -0.5620     0.0560 ca         1 NCJ      -0.181500
     26 C87          1.1470    -1.2800     0.0260 ca         1 NCJ       0.332000
     27 N52          4.7280    -0.4230     0.0890 ns         1 NCJ      -0.149500
     28 C54          6.0250    -0.7770     0.3150 c          1 NCJ       0.609600
     29 O84          6.3900    -1.9220     0.5060 o          1 NCJ      -0.579100
     30 C55          6.9810     0.3960     0.3420 c3         1 NCJ      -0.162900
     31 C58          8.3800    -0.0010    -0.1150 c3         1 NCJ       0.175300
     32 N61          9.3460     1.0680     0.0770 n3         1 NCJ      -0.724100
     33 C63         10.7350     0.5940     0.0710 c6         1 NCJ       0.187500
     34 C77         10.9860    -0.4930     1.1120 c3         1 NCJ      -0.094100
     35 C66         11.6820     1.7640     0.3400 c6         1 NCJ      -0.075400
     36 C69         11.4950     2.9050    -0.6470 c6         1 NCJ      -0.074400
     37 C72         10.0350     3.3250    -0.6580 c6         1 NCJ      -0.076400
     38 C75          9.1470     2.1190    -0.9120 c6         1 NCJ       0.165800
     39 H10         -6.5720     1.2400     0.3550 hc         1 NCJ       0.067700
     40 H10A        -7.0330     0.7680    -1.2640 hc         1 NCJ       0.067700
     41 H13         -8.6980    -0.8260    -0.3510 h1         1 NCJ       0.048200
     42 H13A        -8.3550    -0.2940     1.2840 h1         1 NCJ       0.048200
     43 H18        -11.0010     0.2480     1.0190 h1         1 NCJ       0.020700
     44 H20        -10.5640    -1.3880    -0.7600 hc         1 NCJ       0.040700
     45 H20A       -12.0620    -0.5670    -1.1400 hc         1 NCJ       0.040700
     46 H20B       -10.5820    -0.1180    -1.9900 hc         1 NCJ       0.040700
     47 H27        -11.4730     2.2060    -1.2640 hc         1 NCJ       0.046700
     48 H27A       -12.6940     1.4850    -0.2240 hc         1 NCJ       0.046700
     49 H30        -12.1060     3.8280     0.4880 hc         1 NCJ       0.039950
     50 H30A       -11.7720     2.6460     1.7440 hc         1 NCJ       0.039950
     51 H33         -9.7240     3.8260    -0.1880 hc         1 NCJ       0.046200
     52 H33A        -9.8120     4.1290     1.5420 hc         1 NCJ       0.046200
     53 H36         -9.3430     1.7800     2.0460 h1         1 NCJ       0.026950
     54 H36A        -8.0860     2.4640     1.0220 h1         1 NCJ       0.026950
     55 HN7         -4.5530     0.5790     0.0290 hn         1 NCJ       0.152000
     56 H40         -4.5700    -3.1480    -0.0750 ha         1 NCJ       0.150500
     57 H42         -2.5080    -4.4260    -0.0540 ha         1 NCJ       0.118000
     58 H4          -2.3190     0.5250    -0.0110 ha         1 NCJ       0.127000
     59 H45         -0.0030    -4.4900    -0.0200 ha         1 NCJ       0.119000
     60 H47          2.5020    -4.4310     0.0120 ha         1 NCJ       0.118000
     61 H49          4.5650    -3.1560     0.0590 ha         1 NCJ       0.150500
     62 H85          2.3200     0.5210     0.0670 ha         1 NCJ       0.127000
     63 HN52         4.5600     0.5670    -0.0200 hn         1 NCJ       0.152000
     64 H55          6.5800     1.2210    -0.2480 hc         1 NCJ       0.067700
     65 H55A         7.0340     0.7540     1.3750 hc         1 NCJ       0.067700
     66 H58          8.6810    -0.8630     0.4740 h1         1 NCJ       0.048200
     67 H58A         8.3460    -0.3370    -1.1650 h1         1 NCJ       0.048200
     68 H63         10.9890     0.1840    -0.9250 h1         1 NCJ       0.020700
     69 H77         10.5480    -1.4550     0.8480 hc         1 NCJ       0.040700
     70 H77A        12.0590    -0.6540     1.2190 hc         1 NCJ       0.040700
     71 H77B        10.5920    -0.1930     2.0850 hc         1 NCJ       0.040700
     72 H66         11.5060     2.1270     1.3590 hc         1 NCJ       0.046700
     73 H66A        12.7090     1.3930     0.3080 hc         1 NCJ       0.046700
     74 H69         12.1460     3.7450    -0.3950 hc         1 NCJ       0.039950
     75 H69A        11.7830     2.5700    -1.6490 hc         1 NCJ       0.039950
     76 H72          9.7690     3.7710     0.3060 hc         1 NCJ       0.046200
     77 H72A         9.8450     4.0800    -1.4240 hc         1 NCJ       0.046200
     78 H75          9.3390     1.7380    -1.9320 h1         1 NCJ       0.026950
     79 H75A         8.1030     2.4370    -0.8920 h1         1 NCJ       0.026950
@<TRIPOS>BOND
     1     1     2 2   
     2     2     3 1   
     3     2    12 1   
     4     3     4 1   
     5     3    39 1   
     6     3    40 1   
     7     4     5 1   
     8     4    41 1   
     9     4    42 1   
    10     5     6 1   
    11     5    11 1   
    12     6     7 1   
    13     6     8 1   
    14     6    43 1   
    15     7    44 1   
    16     7    45 1   
    17     7    46 1   
    18     8     9 1   
    19     8    47 1   
    20     8    48 1   
    21     9    10 1   
    22     9    49 1   
    23     9    50 1   
    24    10    11 1   
    25    10    51 1   
    26    10    52 1   
    27    11    53 1   
    28    11    54 1   
    29    12    13 1   
    30    12    55 1   
    31    13    14 ar  
    32    13    16 ar  
    33    14    15 ar  
    34    14    56 1   
    35    15    19 ar  
    36    15    57 1   
    37    16    17 ar  
    38    16    58 1   
    39    17    18 ar  
    40    17    19 ar  
    41    18    26 ar  
    42    19    20 ar  
    43    20    21 ar  
    44    20    59 1   
    45    21    22 ar  
    46    21    26 ar  
    47    22    23 ar  
    48    22    60 1   
    49    23    24 ar  
    50    23    61 1   
    51    24    25 ar  
    52    24    27 1   
    53    25    26 ar  
    54    25    62 1   
    55    27    28 1   
    56    27    63 1   
    57    28    29 2   
    58    28    30 1   
    59    30    31 1   
    60    30    64 1   
    61    30    65 1   
    62    31    32 1   
    63    31    66 1   
    64    31    67 1   
    65    32    33 1   
    66    32    38 1   
    67    33    34 1   
    68    33    35 1   
    69    33    68 1   
    70    34    69 1   
    71    34    70 1   
    72    34    71 1   
    73    35    36 1   
    74    35    72 1   
    75    35    73 1   
    76    36    37 1   
    77    36    74 1   
    78    36    75 1   
    79    37    38 1   
    80    37    76 1   
    81    37    77 1   
    82    38    78 1   
    83    38    79 1   
@<TRIPOS>SUBSTRUCTURE
     1 NCJ         1 TEMP              0 ****  ****    0 ROOT
