@<TRIPOS>MOLECULE
NCJ
   79    83     1     0     0
SMALL
No Charge or Current Charge


@<TRIPOS>ATOM
      1 O39         -6.4180    -2.2520    -1.4830 o          1 NCJ      -0.579100
      2 C9          -6.0140    -1.1170    -1.2580 c          1 NCJ       0.609600
      3 C10         -6.9360     0.0960    -1.3840 c3         1 NCJ      -0.162900
      4 C13         -7.9120     0.1520    -0.1890 c3         1 NCJ       0.175300
      5 N16         -8.9980     1.1700    -0.3100 n3         1 NCJ      -0.724100
      6 C18        -10.0150     1.0930     0.7990 c6         1 NCJ       0.187500
      7 C20        -10.6470    -0.3200     0.9740 c3         1 NCJ      -0.094100
      8 C27        -11.1620     2.1250     0.5840 c6         1 NCJ      -0.075400
      9 C30        -10.6220     3.5610     0.4370 c6         1 NCJ      -0.074400
     10 C33         -9.5770     3.6050    -0.6930 c6         1 NCJ      -0.076400
     11 C36         -8.4630     2.5620    -0.4510 c6         1 NCJ       0.165800
     12 N7          -4.7040    -0.8070    -0.9120 ns         1 NCJ      -0.149500
     13 C6          -3.5550    -1.6150    -0.6900 ca         1 NCJ       0.007500
     14 C40         -3.5770    -3.0260    -0.7010 ca         1 NCJ      -0.122500
     15 C42         -2.3990    -3.7550    -0.4700 ca         1 NCJ      -0.068000
     16 C4          -2.3370    -0.9560    -0.4390 ca         1 NCJ      -0.181500
     17 C3          -1.1480    -1.6680    -0.2060 ca         1 NCJ       0.332000
     18 N1          -0.0010    -0.9900     0.0290 nb         1 NCJ      -0.686000
     19 C44         -1.1890    -3.0810    -0.2240 ca         1 NCJ      -0.117000
     20 C45         -0.0090    -3.8040     0.0070 ca         1 NCJ      -0.023000
     21 C2           1.1760    -3.0910     0.2500 ca         1 NCJ      -0.117000
     22 C47          2.3820    -3.7750     0.4850 ca         1 NCJ      -0.068000
     23 C49          3.5640    -3.0560     0.7280 ca         1 NCJ      -0.122500
     24 C51          3.5490    -1.6450     0.7390 ca         1 NCJ       0.007500
     25 C85          2.3350    -0.9760     0.4980 ca         1 NCJ      -0.181500
     26 C87          1.1420    -1.6770     0.2530 ca         1 NCJ       0.332000
     27 N52          4.7030    -0.8470     0.9730 ns         1 NCJ      -0.149500
     28 C54          6.0100    -1.1690     1.3150 c          1 NCJ       0.609600
     29 O84          6.4080    -2.3090     1.5250 o          1 NCJ      -0.579100
     30 C55          6.9390     0.0370     1.4590 c3         1 NCJ      -0.162900
     31 C58          7.9160     0.1050     0.2650 c3         1 NCJ       0.175300
     32 N61          9.0080     1.1140     0.4010 n3         1 NCJ      -0.724100
     33 C63         10.0250     1.0480    -0.7080 c6         1 NCJ       0.187500
     34 C77         10.6480    -0.3660    -0.9040 c3         1 NCJ      -0.094100
     35 C66         11.1770     2.0690    -0.4780 c6         1 NCJ      -0.075400
     36 C69         10.6450     3.5070    -0.3110 c6         1 NCJ      -0.074400
     37 C72          9.6000     3.5410     0.8180 c6         1 NCJ      -0.076400
     38 C75          8.4800     2.5070     0.5610 c6         1 NCJ       0.165800
     39 H10         -6.3350     1.0110    -1.4070 hc         1 NCJ       0.067700
     40 H10A        -7.5220    -0.0000    -2.3040 hc         1 NCJ       0.067700
     41 H13         -8.3510    -0.8500    -0.1090 h1         1 NCJ       0.048200
     42 H13A        -7.3360     0.3230     0.7320 h1         1 NCJ       0.048200
     43 H18         -9.5230     1.3420     1.7510 h1         1 NCJ       0.020700
     44 H20         -9.9260    -1.0440     1.3710 hc         1 NCJ       0.040700
     45 H20A       -11.4800    -0.2940     1.6860 hc         1 NCJ       0.040700
     46 H20B       -11.0340    -0.7040     0.0240 hc         1 NCJ       0.040700
     47 H27        -11.7370     1.8550    -0.3130 hc         1 NCJ       0.046700
     48 H27A       -11.8640     2.0880     1.4270 hc         1 NCJ       0.046700
     49 H30        -11.4440     4.2560     0.2210 hc         1 NCJ       0.039950
     50 H30A       -10.1660     3.8880     1.3820 hc         1 NCJ       0.039950
     51 H33        -10.0610     3.4080    -1.6590 hc         1 NCJ       0.046200
     52 H33A        -9.1380     4.6090    -0.7590 hc         1 NCJ       0.046200
     53 H36         -7.9000     2.8420     0.4520 h1         1 NCJ       0.026950
     54 H36A        -7.7690     2.6320    -1.2990 h1         1 NCJ       0.026950
     55 HN7         -4.5350     0.1820    -0.7870 hn         1 NCJ       0.152000
     56 H40         -4.4940    -3.5790    -0.8810 ha         1 NCJ       0.150500
     57 H42         -2.4290    -4.8420    -0.4810 ha         1 NCJ       0.118000
     58 H4          -2.3070     0.1300    -0.4240 ha         1 NCJ       0.127000
     59 H45         -0.0120    -4.8920    -0.0010 ha         1 NCJ       0.119000
     60 H47          2.4060    -4.8630     0.4790 ha         1 NCJ       0.118000
     61 H49          4.4770    -3.6170     0.8990 ha         1 NCJ       0.150500
     62 H85          2.3100     0.1110     0.5000 ha         1 NCJ       0.127000
     63 HN52         4.5380     0.1450     0.8620 hn         1 NCJ       0.152000
     64 H55          6.3430     0.9550     1.4950 hc         1 NCJ       0.067700
     65 H55A         7.5240    -0.0750     2.3780 hc         1 NCJ       0.067700
     66 H58          8.3490    -0.8990     0.1720 h1         1 NCJ       0.048200
     67 H58A         7.3410     0.2920    -0.6530 h1         1 NCJ       0.048200
     68 H63          9.5350     1.3120    -1.6570 h1         1 NCJ       0.020700
     69 H77          9.9240    -1.0800    -1.3100 hc         1 NCJ       0.040700
     70 H77A        11.4830    -0.3350    -1.6150 hc         1 NCJ       0.040700
     71 H77B        11.0330    -0.7660     0.0420 hc         1 NCJ       0.040700
     72 H66         11.7510     1.7840     0.4150 hc         1 NCJ       0.046700
     73 H66A        11.8800     2.0410    -1.3220 hc         1 NCJ       0.046700
     74 H69         11.4710     4.1940    -0.0860 hc         1 NCJ       0.039950
     75 H69A        10.1920     3.8500    -1.2520 hc         1 NCJ       0.039950
     76 H72         10.0830     3.3270     1.7820 hc         1 NCJ       0.046200
     77 H72A         9.1670     4.5460     0.8990 hc         1 NCJ       0.046200
     78 H75          7.9190     2.8030    -0.3380 h1         1 NCJ       0.026950
     79 H75A         7.7860     2.5690     1.4100 h1         1 NCJ       0.026950
@<TRIPOS>BOND
     1     1     2 2   
     2     2     3 1   
     3     2    12 1   
     4     3     4 1   
     5     3    39 1   
     6     3    40 1   
     7     4     5 1   
     8     4    41 1   
     9     4    42 1   
    10     5     6 1   
    11     5    11 1   
    12     6     7 1   
    13     6     8 1   
    14     6    43 1   
    15     7    44 1   
    16     7    45 1   
    17     7    46 1   
    18     8     9 1   
    19     8    47 1   
    20     8    48 1   
    21     9    10 1   
    22     9    49 1   
    23     9    50 1   
    24    10    11 1   
    25    10    51 1   
    26    10    52 1   
    27    11    53 1   
    28    11    54 1   
    29    12    13 1   
    30    12    55 1   
    31    13    14 ar  
    32    13    16 ar  
    33    14    15 ar  
    34    14    56 1   
    35    15    19 ar  
    36    15    57 1   
    37    16    17 ar  
    38    16    58 1   
    39    17    18 ar  
    40    17    19 ar  
    41    18    26 ar  
    42    19    20 ar  
    43    20    21 ar  
    44    20    59 1   
    45    21    22 ar  
    46    21    26 ar  
    47    22    23 ar  
    48    22    60 1   
    49    23    24 ar  
    50    23    61 1   
    51    24    25 ar  
    52    24    27 1   
    53    25    26 ar  
    54    25    62 1   
    55    27    28 1   
    56    27    63 1   
    57    28    29 2   
    58    28    30 1   
    59    30    31 1   
    60    30    64 1   
    61    30    65 1   
    62    31    32 1   
    63    31    66 1   
    64    31    67 1   
    65    32    33 1   
    66    32    38 1   
    67    33    34 1   
    68    33    35 1   
    69    33    68 1   
    70    34    69 1   
    71    34    70 1   
    72    34    71 1   
    73    35    36 1   
    74    35    72 1   
    75    35    73 1   
    76    36    37 1   
    77    36    74 1   
    78    36    75 1   
    79    37    38 1   
    80    37    76 1   
    81    37    77 1   
    82    38    78 1   
    83    38    79 1   
@<TRIPOS>SUBSTRUCTURE
     1 NCJ         1 TEMP              0 ****  ****    0 ROOT
