@<TRIPOS>MOLECULE
NCK
   79    83     1     0     0
SMALL
bcc


@<TRIPOS>ATOM
      1 O39         -6.3290    -2.1490    -0.3220 o          1 NCK      -0.575100
      2 C9          -5.8830    -1.0200    -0.2350 c          1 NCK       0.673600
      3 C10         -6.7610     0.2070    -0.3120 c3         1 NCK      -0.162400
      4 C13         -8.1240    -0.0090     0.3380 c3         1 NCK       0.179300
      5 N16         -8.9550     1.1770     0.2480 n3         1 NCK      -0.727100
      6 C18        -10.0060     1.1700     1.2520 c6         1 NCK       0.169050
      7 C27        -10.7900     2.4730     1.2370 c6         1 NCK      -0.073150
      8 C30        -11.3910     2.7480    -0.1380 c6         1 NCK      -0.062700
      9 C20        -12.1200     4.0820    -0.1910 c3         1 NCK      -0.085100
     10 C33        -10.2850     2.6640    -1.1850 c6         1 NCK      -0.073150
     11 C36         -9.5170     1.3550    -1.0800 c6         1 NCK       0.169050
     12 N7          -4.5590    -0.7330    -0.0870 ns         1 NCK      -0.475100
     13 C6          -3.4500    -1.5750    -0.0620 ca         1 NCK       0.090100
     14 C40         -3.5530    -3.0000    -0.1010 ca         1 NCK      -0.155500
     15 C42         -2.4260    -3.7600    -0.0740 ca         1 NCK      -0.082500
     16 C4          -2.2140    -0.9820     0.0070 ca         1 NCK      -0.239300
     17 C3          -1.0260    -1.7520     0.0350 ca         1 NCK       0.459100
     18 N1           0.1480    -1.1200     0.0960 nb         1 NCK      -0.675000
     19 C44         -1.1350    -3.1760    -0.0090 ca         1 NCK      -0.183300
     20 C45          0.0390    -3.9200     0.0140 ca         1 NCK      -0.043000
     21 C2           1.2630    -3.2700     0.0730 ca         1 NCK      -0.183300
     22 C87          1.2680    -1.8410     0.1130 ca         1 NCK       0.459100
     23 C47          2.5060    -3.9580     0.0920 ca         1 NCK      -0.082500
     24 C49          3.6750    -3.2730     0.1430 ca         1 NCK      -0.155500
     25 C51          3.6900    -1.8420     0.1830 ca         1 NCK       0.090100
     26 C85          2.5090    -1.1470     0.1700 ca         1 NCK      -0.239300
     27 N52          4.9560    -1.2710     0.2270 ns         1 NCK      -0.475100
     28 C54          5.3080     0.0460     0.2890 c          1 NCK       0.673600
     29 O84          4.5000     0.9550     0.3040 o          1 NCK      -0.575100
     30 C55          6.8030     0.2650     0.3550 c3         1 NCK      -0.162400
     31 C58          7.1980     1.7120     0.0960 c3         1 NCK       0.179300
     32 N61          8.6300     1.9110     0.2210 n3         1 NCK      -0.727100
     33 C63          9.3600     1.4100    -0.9320 c6         1 NCK       0.169050
     34 C66         10.8620     1.5300    -0.7310 c6         1 NCK      -0.073150
     35 C69         11.2760     2.9680    -0.4370 c6         1 NCK      -0.062700
     36 C77         12.7680     3.0870    -0.1640 c3         1 NCK      -0.085100
     37 C72         10.4370     3.4950     0.7230 c6         1 NCK      -0.073150
     38 C75          8.9510     3.3080     0.4640 c6         1 NCK       0.169050
     39 H10         -6.2760     1.0710     0.1480 hc         1 NCK       0.067450
     40 H10A        -6.8710     0.4480    -1.3740 hc         1 NCK       0.067450
     41 H13         -8.6180    -0.8890    -0.1000 h1         1 NCK       0.047700
     42 H13A        -7.9680    -0.2340     1.3950 h1         1 NCK       0.047700
     43 H18        -10.7030     0.3270     1.1010 h1         1 NCK       0.030200
     44 H18A        -9.5500     1.0280     2.2350 h1         1 NCK       0.030200
     45 H27        -11.5770     2.4280     1.9950 hc         1 NCK       0.046325
     46 H27A       -10.1240     3.2960     1.5180 hc         1 NCK       0.046325
     47 H30        -12.1150     1.9490    -0.3480 hc         1 NCK       0.042700
     48 H20        -11.4310     4.9110    -0.0070 hc         1 NCK       0.033200
     49 H20A       -12.5760     4.2450    -1.1700 hc         1 NCK       0.033200
     50 H20B       -12.9120     4.1370     0.5570 hc         1 NCK       0.033200
     51 H33        -10.7030     2.7560    -2.1910 hc         1 NCK       0.046325
     52 H33A        -9.5920     3.5010    -1.0480 hc         1 NCK       0.046325
     53 H36         -8.7130     1.3490    -1.8200 h1         1 NCK       0.030200
     54 H36A       -10.1890     0.5170    -1.3410 h1         1 NCK       0.030200
     55 HN7         -4.3360     0.2490    -0.0160 hn         1 NCK       0.318000
     56 H40         -4.5170    -3.4760    -0.1510 ha         1 NCK       0.148500
     57 H42         -2.5090    -4.8390    -0.1030 ha         1 NCK       0.134000
     58 H4          -2.1200     0.0970     0.0360 ha         1 NCK       0.165500
     59 H45         -0.0030    -5.0030    -0.0170 ha         1 NCK       0.135000
     60 H47          2.5120    -5.0400     0.0630 ha         1 NCK       0.134000
     61 H49          4.6140    -3.8120     0.1560 ha         1 NCK       0.148500
     62 H85          2.4770    -0.0710     0.1970 ha         1 NCK       0.165500
     63 HN52         5.7210    -1.9290     0.2200 hn         1 NCK       0.318000
     64 H55          7.1480    -0.0320     1.3510 hc         1 NCK       0.067450
     65 H55A         7.2900    -0.4150    -0.3480 hc         1 NCK       0.067450
     66 H58          6.8230     2.0360    -0.8890 h1         1 NCK       0.047700
     67 H58A         6.7050     2.3440     0.8370 h1         1 NCK       0.047700
     68 H63          9.1020     0.3630    -1.1000 h1         1 NCK       0.030200
     69 H63A         9.0670     1.9540    -1.8500 h1         1 NCK       0.030200
     70 H66         11.1660     0.8870     0.1020 hc         1 NCK       0.046325
     71 H66A        11.3770     1.1610    -1.6220 hc         1 NCK       0.046325
     72 H69         11.0370     3.5740    -1.3210 hc         1 NCK       0.042700
     73 H77         13.3570     2.7390    -1.0150 hc         1 NCK       0.033200
     74 H77A        13.0530     4.1210     0.0390 hc         1 NCK       0.033200
     75 H77B        13.0560     2.4870     0.7030 hc         1 NCK       0.033200
     76 H72         10.7130     2.9650     1.6420 hc         1 NCK       0.046325
     77 H72A        10.6430     4.5550     0.8940 hc         1 NCK       0.046325
     78 H75          8.6480     3.9450    -0.3870 h1         1 NCK       0.030200
     79 H75A         8.3770     3.6500     1.3290 h1         1 NCK       0.030200
@<TRIPOS>BOND
     1     1     2 2   
     2     2     3 1   
     3     2    12 1   
     4     3     4 1   
     5     3    39 1   
     6     3    40 1   
     7     4     5 1   
     8     4    41 1   
     9     4    42 1   
    10     5     6 1   
    11     5    11 1   
    12     6     7 1   
    13     6    43 1   
    14     6    44 1   
    15     7     8 1   
    16     7    45 1   
    17     7    46 1   
    18     8     9 1   
    19     8    10 1   
    20     8    47 1   
    21     9    48 1   
    22     9    49 1   
    23     9    50 1   
    24    10    11 1   
    25    10    51 1   
    26    10    52 1   
    27    11    53 1   
    28    11    54 1   
    29    12    13 1   
    30    12    55 1   
    31    13    14 ar  
    32    13    16 ar  
    33    14    15 ar  
    34    14    56 1   
    35    15    19 ar  
    36    15    57 1   
    37    16    17 ar  
    38    16    58 1   
    39    17    18 ar  
    40    17    19 ar  
    41    18    22 ar  
    42    19    20 ar  
    43    20    21 ar  
    44    20    59 1   
    45    21    22 ar  
    46    21    23 ar  
    47    22    26 ar  
    48    23    24 ar  
    49    23    60 1   
    50    24    25 ar  
    51    24    61 1   
    52    25    26 ar  
    53    25    27 1   
    54    26    62 1   
    55    27    28 1   
    56    27    63 1   
    57    28    29 2   
    58    28    30 1   
    59    30    31 1   
    60    30    64 1   
    61    30    65 1   
    62    31    32 1   
    63    31    66 1   
    64    31    67 1   
    65    32    33 1   
    66    32    38 1   
    67    33    34 1   
    68    33    68 1   
    69    33    69 1   
    70    34    35 1   
    71    34    70 1   
    72    34    71 1   
    73    35    36 1   
    74    35    37 1   
    75    35    72 1   
    76    36    73 1   
    77    36    74 1   
    78    36    75 1   
    79    37    38 1   
    80    37    76 1   
    81    37    77 1   
    82    38    78 1   
    83    38    79 1   
@<TRIPOS>SUBSTRUCTURE
     1 NCK         1 TEMP              0 ****  ****    0 ROOT
