@<TRIPOS>MOLECULE
NCK
   79    83     1     0     0
SMALL
No Charge or Current Charge


@<TRIPOS>ATOM
      1 O39         -6.3980    -2.2310    -1.7020 o          1 NCK      -0.575100
      2 C9          -6.0330    -1.1200    -1.3380 c          1 NCK       0.606600
      3 C10         -7.0010     0.0620    -1.3060 c3         1 NCK      -0.162400
      4 C13         -7.9670    -0.0740    -0.1130 c3         1 NCK       0.179300
      5 N16         -8.8100     1.1230     0.1270 n3         1 NCK      -0.727100
      6 C18         -9.5370     1.0310     1.4250 c6         1 NCK       0.169050
      7 C27        -10.3130     2.3310     1.7450 c6         1 NCK      -0.073150
      8 C30        -11.3030     2.6850     0.6080 c6         1 NCK      -0.062700
      9 C20        -12.0640     4.0070     0.8940 c3         1 NCK      -0.085100
     10 C33        -10.5390     2.7390    -0.7380 c6         1 NCK      -0.073150
     11 C36         -9.7510     1.4300    -0.9920 c6         1 NCK       0.169050
     12 N7          -4.7330    -0.8040    -0.9640 ns         1 NCK      -0.149000
     13 C6          -3.5520    -1.5890    -0.8490 ca         1 NCK      -0.002500
     14 C40         -3.5290    -2.9910    -1.0030 ca         1 NCK      -0.137500
     15 C42         -2.3230    -3.6980    -0.8700 ca         1 NCK      -0.064500
     16 C4          -2.3500    -0.9170    -0.5550 ca         1 NCK      -0.156000
     17 C3          -1.1330    -1.6080    -0.4190 ca         1 NCK       0.328500
     18 N1          -0.0030    -0.9190    -0.1380 nb         1 NCK      -0.675000
     19 C44         -1.1300    -3.0120    -0.5810 ca         1 NCK      -0.118000
     20 C45          0.0780    -3.7150    -0.4480 ca         1 NCK      -0.025000
     21 C2           1.2450    -2.9900    -0.1570 ca         1 NCK      -0.118000
     22 C87          1.1670    -1.5860    -0.0070 ca         1 NCK       0.328500
     23 C47          2.4760    -3.6550    -0.0190 ca         1 NCK      -0.064500
     24 C49          3.6370    -2.9230     0.2720 ca         1 NCK      -0.137500
     25 C51          3.5840    -1.5270     0.4300 ca         1 NCK      -0.002500
     26 C85          2.3420    -0.8700     0.2840 ca         1 NCK      -0.156000
     27 N52          4.8030    -0.8520     0.7200 ns         1 NCK      -0.149000
     28 C54          5.0910     0.4720     1.0250 c          1 NCK       0.606600
     29 O84          4.2470     1.3540     1.1410 o          1 NCK      -0.575100
     30 C55          6.5750     0.7570     1.2570 c3         1 NCK      -0.162400
     31 C58          7.1580     1.5490     0.0690 c3         1 NCK       0.179300
     32 N61          8.5540     2.0120     0.2680 n3         1 NCK      -0.727100
     33 C63          9.5470     0.9020     0.3880 c6         1 NCK       0.169050
     34 C66         10.9710     1.4340     0.6870 c6         1 NCK      -0.073150
     35 C69         11.4300     2.4510    -0.3870 c6         1 NCK      -0.062700
     36 C77         12.8390     3.0220    -0.0780 c3         1 NCK      -0.085100
     37 C72         10.3690     3.5720    -0.5180 c6         1 NCK      -0.073150
     38 C75          8.9640     2.9810    -0.7890 c6         1 NCK       0.169050
     39 H10         -6.4490     1.0030    -1.2000 hc         1 NCK       0.067450
     40 H10A        -7.5760     0.0620    -2.2380 hc         1 NCK       0.067450
     41 H13         -8.6010    -0.9600    -0.2660 h1         1 NCK       0.047700
     42 H13A        -7.3600    -0.2680     0.7820 h1         1 NCK       0.047700
     43 H18        -10.2440     0.1880     1.4040 h1         1 NCK       0.030200
     44 H18A        -8.8290     0.8380     2.2440 h1         1 NCK       0.030200
     45 H27        -10.8550     2.2100     2.6930 hc         1 NCK       0.046325
     46 H27A        -9.6000     3.1530     1.8940 hc         1 NCK       0.046325
     47 H30        -12.0650     1.8940     0.5470 hc         1 NCK       0.042700
     48 H20        -11.3750     4.8560     0.9710 hc         1 NCK       0.033200
     49 H20A       -12.7820     4.2300     0.0960 hc         1 NCK       0.033200
     50 H20B       -12.6240     3.9440     1.8350 hc         1 NCK       0.033200
     51 H33        -11.2410     2.9100    -1.5650 hc         1 NCK       0.046325
     52 H33A        -9.8410     3.5880    -0.7400 hc         1 NCK       0.046325
     53 H36         -9.2070     1.5460    -1.9400 h1         1 NCK       0.030200
     54 H36A       -10.4630     0.6030    -1.1260 h1         1 NCK       0.030200
     55 HN7         -4.6000     0.1690    -0.7200 hn         1 NCK       0.151500
     56 H40         -4.4310    -3.5540    -1.2180 ha         1 NCK       0.130500
     57 H42         -2.3190    -4.7800    -0.9910 ha         1 NCK       0.116000
     58 H4          -2.3520     0.1620    -0.4300 ha         1 NCK       0.147500
     59 H45          0.1090    -4.7960    -0.5680 ha         1 NCK       0.117000
     60 H47          2.5350    -4.7350    -0.1360 ha         1 NCK       0.116000
     61 H49          4.5840    -3.4480     0.3760 ha         1 NCK       0.130500
     62 H85          2.2610     0.2050     0.3870 ha         1 NCK       0.147500
     63 HN52         5.6160    -1.4540     0.6920 hn         1 NCK       0.151500
     64 H55          6.6820     1.3640     2.1620 hc         1 NCK       0.067450
     65 H55A         7.1190    -0.1870     1.3670 hc         1 NCK       0.067450
     66 H58          7.0900     0.9310    -0.8380 h1         1 NCK       0.047700
     67 H58A         6.5120     2.4230    -0.0940 h1         1 NCK       0.047700
     68 H63          9.2720     0.2160     1.2000 h1         1 NCK       0.030200
     69 H63A         9.5720     0.3120    -0.5400 h1         1 NCK       0.030200
     70 H66         10.9810     1.9050     1.6790 hc         1 NCK       0.046325
     71 H66A        11.6740     0.5910     0.7330 hc         1 NCK       0.046325
     72 H69         11.5100     1.9300    -1.3520 hc         1 NCK       0.042700
     73 H77         13.5860     2.2210    -0.0170 hc         1 NCK       0.033200
     74 H77A        13.1640     3.7180    -0.8610 hc         1 NCK       0.033200
     75 H77B        12.8510     3.5630     0.8760 hc         1 NCK       0.033200
     76 H72         10.3400     4.1720     0.4020 hc         1 NCK       0.046325
     77 H72A        10.6410     4.2570    -1.3310 hc         1 NCK       0.046325
     78 H75          8.9670     2.4890    -1.7730 h1         1 NCK       0.030200
     79 H75A         8.2440     3.8100    -0.8440 h1         1 NCK       0.030200
@<TRIPOS>BOND
     1     1     2 2   
     2     2     3 1   
     3     2    12 1   
     4     3     4 1   
     5     3    39 1   
     6     3    40 1   
     7     4     5 1   
     8     4    41 1   
     9     4    42 1   
    10     5     6 1   
    11     5    11 1   
    12     6     7 1   
    13     6    43 1   
    14     6    44 1   
    15     7     8 1   
    16     7    45 1   
    17     7    46 1   
    18     8     9 1   
    19     8    10 1   
    20     8    47 1   
    21     9    48 1   
    22     9    49 1   
    23     9    50 1   
    24    10    11 1   
    25    10    51 1   
    26    10    52 1   
    27    11    53 1   
    28    11    54 1   
    29    12    13 1   
    30    12    55 1   
    31    13    14 ar  
    32    13    16 ar  
    33    14    15 ar  
    34    14    56 1   
    35    15    19 ar  
    36    15    57 1   
    37    16    17 ar  
    38    16    58 1   
    39    17    18 ar  
    40    17    19 ar  
    41    18    22 ar  
    42    19    20 ar  
    43    20    21 ar  
    44    20    59 1   
    45    21    22 ar  
    46    21    23 ar  
    47    22    26 ar  
    48    23    24 ar  
    49    23    60 1   
    50    24    25 ar  
    51    24    61 1   
    52    25    26 ar  
    53    25    27 1   
    54    26    62 1   
    55    27    28 1   
    56    27    63 1   
    57    28    29 2   
    58    28    30 1   
    59    30    31 1   
    60    30    64 1   
    61    30    65 1   
    62    31    32 1   
    63    31    66 1   
    64    31    67 1   
    65    32    33 1   
    66    32    38 1   
    67    33    34 1   
    68    33    68 1   
    69    33    69 1   
    70    34    35 1   
    71    34    70 1   
    72    34    71 1   
    73    35    36 1   
    74    35    37 1   
    75    35    72 1   
    76    36    73 1   
    77    36    74 1   
    78    36    75 1   
    79    37    38 1   
    80    37    76 1   
    81    37    77 1   
    82    38    78 1   
    83    38    79 1   
@<TRIPOS>SUBSTRUCTURE
     1 NCK         1 TEMP              0 ****  ****    0 ROOT
