@<TRIPOS>MOLECULE
NCL
   79    83     1     0     0
SMALL
bcc


@<TRIPOS>ATOM
      1 O39          6.4910    -1.9510     1.0790 o          1 NCL      -0.575600
      2 C9           6.1170    -1.0590     0.3430 c          1 NCL       0.678100
      3 C10          7.0480    -0.0230    -0.2460 c3         1 NCL      -0.165400
      4 C13          8.5140    -0.2840     0.0690 c3         1 NCL       0.180300
      5 N16          9.3500     0.8460    -0.2830 n3         1 NCL      -0.724100
      6 C18         10.6540     0.7660     0.3540 c6         1 NCL       0.171300
      7 C27         11.4570     2.0490     0.1550 c6         1 NCL      -0.060700
      8 C20         10.8310     3.2270     0.8960 c3         1 NCL      -0.083600
      9 C30         11.6090     2.3190    -1.3430 c6         1 NCL      -0.072400
     10 C33         10.2580     2.2880    -2.0480 c6         1 NCL      -0.074400
     11 C36          9.4980     1.0120    -1.7190 c6         1 NCL       0.164800
     12 N7           4.8160    -0.8700    -0.0260 ns         1 NCL      -0.477600
     13 C6           3.6610    -1.5170     0.4020 ca         1 NCL       0.100600
     14 C4           2.4570    -0.9510     0.0670 ca         1 NCL      -0.265300
     15 C3           1.2290    -1.5360     0.4640 ca         1 NCL       0.462600
     16 N1           0.0910    -0.9310     0.1220 nb         1 NCL      -0.686000
     17 C40          3.6900    -2.7350     1.1510 ca         1 NCL      -0.141000
     18 C42          2.5250    -3.3150     1.5440 ca         1 NCL      -0.085000
     19 C44          1.2640    -2.7440     1.2270 ca         1 NCL      -0.182300
     20 C45          0.0560    -3.3000     1.6240 ca         1 NCL      -0.041000
     21 C2          -1.1350    -2.6750     1.2790 ca         1 NCL      -0.182300
     22 C47         -2.4110    -3.1710     1.6520 ca         1 NCL      -0.085000
     23 C49         -3.5570    -2.5250     1.3080 ca         1 NCL      -0.141000
     24 C87         -1.0640    -1.4690     0.5130 ca         1 NCL       0.462600
     25 C85         -2.2720    -0.8160     0.1670 ca         1 NCL      -0.265300
     26 C51         -3.4910    -1.3130     0.5530 ca         1 NCL       0.100600
     27 N52         -4.6240    -0.5980     0.1740 ns         1 NCL      -0.477600
     28 C54         -5.9300    -0.7660     0.5310 c          1 NCL       0.678100
     29 O84         -6.3310    -1.6770     1.2290 o          1 NCL      -0.575600
     30 C55         -6.8350     0.3150    -0.0200 c3         1 NCL      -0.165400
     31 C58         -8.3090     0.0180     0.2010 c3         1 NCL       0.180300
     32 N61         -9.1600     1.1570    -0.0890 n3         1 NCL      -0.724100
     33 C63        -10.5080     0.9140     0.3970 c6         1 NCL       0.171300
     34 C66        -11.4210     2.1220     0.2220 c6         1 NCL      -0.060700
     35 C77        -12.8190     1.8130     0.7390 c3         1 NCL      -0.083600
     36 C69        -11.4370     2.5420    -1.2450 c6         1 NCL      -0.072400
     37 C72        -10.0190     2.7390    -1.7580 c6         1 NCL      -0.074400
     38 C75         -9.1710     1.5040    -1.5010 c6         1 NCL       0.164800
     39 H10          6.8700     0.0280    -1.3240 hc         1 NCL       0.068450
     40 H10A         6.7670     0.9570     0.1530 hc         1 NCL       0.068450
     41 H13          8.6140    -0.4500     1.1430 h1         1 NCL       0.047700
     42 H13A         8.8460    -1.2140    -0.4210 h1         1 NCL       0.047700
     43 H18         10.5090     0.5860     1.4230 h1         1 NCL       0.032450
     44 H18A        11.2360    -0.0900    -0.0330 h1         1 NCL       0.032450
     45 H27         12.4520     1.8730     0.5770 hc         1 NCL       0.052700
     46 H20         10.7710     3.0260     1.9680 hc         1 NCL       0.034533
     47 H20A        11.4250     4.1330     0.7650 hc         1 NCL       0.034533
     48 H20B         9.8200     3.4340     0.5460 hc         1 NCL       0.034533
     49 H30         12.1070     3.2770    -1.5110 hc         1 NCL       0.039700
     50 H30A        12.2570     1.5520    -1.7800 hc         1 NCL       0.039700
     51 H33          9.6540     3.1500    -1.7520 hc         1 NCL       0.045450
     52 H33A        10.3910     2.3590    -3.1300 hc         1 NCL       0.045450
     53 H36         10.0220     0.1460    -2.1640 h1         1 NCL       0.027200
     54 H36A         8.5130     1.0560    -2.1880 h1         1 NCL       0.027200
     55 HN7          4.6490    -0.0700    -0.6200 hn         1 NCL       0.317500
     56 H4           2.4180    -0.0310    -0.5050 ha         1 NCL       0.145000
     57 H40          4.6290    -3.1960     1.4030 ha         1 NCL       0.168500
     58 H42          2.5530    -4.2360     2.1130 ha         1 NCL       0.136000
     59 H45          0.0420    -4.2150     2.2060 ha         1 NCL       0.137000
     60 H47         -2.4670    -4.0870     2.2270 ha         1 NCL       0.136000
     61 H49         -4.5090    -2.9300     1.6050 ha         1 NCL       0.168500
     62 H85         -2.2050     0.1000    -0.4080 ha         1 NCL       0.145000
     63 HN52        -4.4330     0.2100    -0.4010 hn         1 NCL       0.317500
     64 H55         -6.5760     1.2600     0.4700 hc         1 NCL       0.068450
     65 H55A        -6.6040     0.4520    -1.0800 hc         1 NCL       0.068450
     66 H58         -8.6020    -0.8710    -0.3850 h1         1 NCL       0.047700
     67 H58A        -8.4580    -0.2450     1.2500 h1         1 NCL       0.047700
     68 H63        -10.9690     0.0470    -0.1150 h1         1 NCL       0.032450
     69 H63A       -10.4490     0.6520     1.4570 h1         1 NCL       0.032450
     70 H66        -11.0010     2.9460     0.8110 hc         1 NCL       0.052700
     71 H77        -12.8030     1.5260     1.7920 hc         1 NCL       0.034533
     72 H77A       -13.4760     2.6780     0.6400 hc         1 NCL       0.034533
     73 H77B       -13.2690     0.9910     0.1770 hc         1 NCL       0.034533
     74 H69        -11.9340     1.7600    -1.8330 hc         1 NCL       0.039700
     75 H69A       -12.0280     3.4520    -1.3740 hc         1 NCL       0.039700
     76 H72        -10.0200     2.9600    -2.8280 hc         1 NCL       0.045450
     77 H72A        -9.5610     3.5970    -1.2560 hc         1 NCL       0.045450
     78 H75         -8.1500     1.6970    -1.8350 h1         1 NCL       0.027200
     79 H75A        -9.5490     0.6640    -2.1140 h1         1 NCL       0.027200
@<TRIPOS>BOND
     1     1     2 2   
     2     2     3 1   
     3     2    12 1   
     4     3     4 1   
     5     3    39 1   
     6     3    40 1   
     7     4     5 1   
     8     4    41 1   
     9     4    42 1   
    10     5     6 1   
    11     5    11 1   
    12     6     7 1   
    13     6    43 1   
    14     6    44 1   
    15     7     8 1   
    16     7     9 1   
    17     7    45 1   
    18     8    46 1   
    19     8    47 1   
    20     8    48 1   
    21     9    10 1   
    22     9    49 1   
    23     9    50 1   
    24    10    11 1   
    25    10    51 1   
    26    10    52 1   
    27    11    53 1   
    28    11    54 1   
    29    12    13 1   
    30    12    55 1   
    31    13    14 ar  
    32    13    17 ar  
    33    14    15 ar  
    34    14    56 1   
    35    15    16 ar  
    36    15    19 ar  
    37    16    24 ar  
    38    17    18 ar  
    39    17    57 1   
    40    18    19 ar  
    41    18    58 1   
    42    19    20 ar  
    43    20    21 ar  
    44    20    59 1   
    45    21    22 ar  
    46    21    24 ar  
    47    22    23 ar  
    48    22    60 1   
    49    23    26 ar  
    50    23    61 1   
    51    24    25 ar  
    52    25    26 ar  
    53    25    62 1   
    54    26    27 1   
    55    27    28 1   
    56    27    63 1   
    57    28    29 2   
    58    28    30 1   
    59    30    31 1   
    60    30    64 1   
    61    30    65 1   
    62    31    32 1   
    63    31    66 1   
    64    31    67 1   
    65    32    33 1   
    66    32    38 1   
    67    33    34 1   
    68    33    68 1   
    69    33    69 1   
    70    34    35 1   
    71    34    36 1   
    72    34    70 1   
    73    35    71 1   
    74    35    72 1   
    75    35    73 1   
    76    36    37 1   
    77    36    74 1   
    78    36    75 1   
    79    37    38 1   
    80    37    76 1   
    81    37    77 1   
    82    38    78 1   
    83    38    79 1   
@<TRIPOS>SUBSTRUCTURE
     1 NCL         1 TEMP              0 ****  ****    0 ROOT
