@<TRIPOS>MOLECULE
NCL
   79    83     1     0     0
SMALL
No Charge or Current Charge


@<TRIPOS>ATOM
      1 O39          6.4410    -2.9630    -0.2040 o          1 NCL      -0.575600
      2 C9           6.0520    -1.8400    -0.5030 c          1 NCL       0.611100
      3 C10          6.9840    -0.8300    -1.1710 c3         1 NCL      -0.165400
      4 C13          7.9860    -0.2710    -0.1430 c3         1 NCL       0.180300
      5 N16          8.7940     0.8690    -0.6420 n3         1 NCL      -0.724100
      6 C18          9.5580     1.5240     0.4600 c6         1 NCL       0.171300
      7 C27         10.2960     2.8090    -0.0090 c6         1 NCL      -0.060700
      8 C20          9.3050     3.9700    -0.3180 c3         1 NCL      -0.083600
      9 C30         11.2230     2.4800    -1.2080 c6         1 NCL      -0.072400
     10 C33         10.4450     1.7520    -2.3300 c6         1 NCL      -0.074400
     11 C36          9.6950     0.5150    -1.7790 c6         1 NCL       0.164800
     12 N7           4.7540    -1.3830    -0.3140 ns         1 NCL      -0.151500
     13 C6           3.6010    -1.9860     0.2600 ca         1 NCL       0.008000
     14 C4           2.3980    -1.2570     0.2140 ca         1 NCL      -0.182000
     15 C3           1.2060    -1.7660     0.7570 ca         1 NCL       0.332000
     16 N1           0.0740    -1.0300     0.6860 nb         1 NCL      -0.686000
     17 C40          3.6050    -3.2570     0.8730 ca         1 NCL      -0.123000
     18 C42          2.4240    -3.7830     1.4200 ca         1 NCL      -0.067000
     19 C44          1.2290    -3.0430     1.3630 ca         1 NCL      -0.117000
     20 C45          0.0450    -3.5650     1.9090 ca         1 NCL      -0.023000
     21 C2          -1.1240    -2.7920     1.8310 ca         1 NCL      -0.117000
     22 C47         -2.3320    -3.2750     2.3630 ca         1 NCL      -0.067000
     23 C49         -3.4990    -2.4980     2.2830 ca         1 NCL      -0.123000
     24 C87         -1.0720    -1.5230     1.2090 ca         1 NCL       0.332000
     25 C85         -2.2500    -0.7600     1.1380 ca         1 NCL      -0.182000
     26 C51         -3.4660    -1.2270     1.6700 ca         1 NCL       0.008000
     27 N52         -4.6040    -0.3830     1.5460 ns         1 NCL      -0.151500
     28 C54         -5.9060    -0.4920     2.0160 c          1 NCL       0.611100
     29 O84         -6.3140    -1.4140     2.7130 o          1 NCL      -0.575600
     30 C55         -6.8160     0.6730     1.6290 c3         1 NCL      -0.165400
     31 C58         -7.8240     0.2280     0.5510 c3         1 NCL       0.180300
     32 N61         -8.8560     1.2420     0.2200 n3         1 NCL      -0.724100
     33 C63         -9.9420     0.6630    -0.6230 c6         1 NCL       0.171300
     34 C66        -11.0990     1.6700    -0.8620 c6         1 NCL      -0.060700
     35 C77        -12.2300     1.0460    -1.7230 c3         1 NCL      -0.083600
     36 C69        -10.5550     2.9740    -1.4970 c6         1 NCL      -0.072400
     37 C72         -9.4060     3.5450    -0.6360 c6         1 NCL      -0.074400
     38 C75         -8.3040     2.4850    -0.3990 c6         1 NCL       0.164800
     39 H10          7.5320    -1.3420    -1.9680 hc         1 NCL       0.068450
     40 H10A         6.4060     0.0050    -1.5830 hc         1 NCL       0.068450
     41 H13          7.4100     0.0570     0.7340 h1         1 NCL       0.047700
     42 H13A         8.6440    -1.0840     0.1940 h1         1 NCL       0.047700
     43 H18          8.8830     1.7890     1.2880 h1         1 NCL       0.032450
     44 H18A        10.2990     0.8210     0.8690 h1         1 NCL       0.032450
     45 H27         10.9220     3.1650     0.8210 hc         1 NCL       0.052700
     46 H20          8.7180     4.2300     0.5710 hc         1 NCL       0.034533
     47 H20A         9.8410     4.8730    -0.6350 hc         1 NCL       0.034533
     48 H20B         8.5980     3.7050    -1.1130 hc         1 NCL       0.034533
     49 H30         11.6870     3.3950    -1.6000 hc         1 NCL       0.039700
     50 H30A        12.0470     1.8380    -0.8650 hc         1 NCL       0.039700
     51 H33          9.7290     2.4380    -2.8010 hc         1 NCL       0.045450
     52 H33A        11.1390     1.4400    -3.1220 hc         1 NCL       0.045450
     53 H36         10.4310    -0.2370    -1.4570 h1         1 NCL       0.027200
     54 H36A         9.1240     0.0730    -2.6080 h1         1 NCL       0.027200
     55 HN7          4.5990    -0.4390    -0.6410 hn         1 NCL       0.151000
     56 H4           2.3810    -0.2750    -0.2520 ha         1 NCL       0.127000
     57 H40          4.5100    -3.8520     0.9400 ha         1 NCL       0.150500
     58 H42          2.4400    -4.7640     1.8900 ha         1 NCL       0.118000
     59 H45          0.0350    -4.5450     2.3820 ha         1 NCL       0.119000
     60 H47         -2.3700    -4.2530     2.8390 ha         1 NCL       0.118000
     61 H49         -4.4150    -2.9060     2.6980 ha         1 NCL       0.150500
     62 H85         -2.2120     0.2160     0.6610 ha         1 NCL       0.127000
     63 HN52        -4.4300     0.4550     1.0070 hn         1 NCL       0.151000
     64 H55         -7.3770     0.9940     2.5140 hc         1 NCL       0.068450
     65 H55A        -6.2120     1.5010     1.2420 hc         1 NCL       0.068450
     66 H58         -7.2720    -0.0590    -0.3560 h1         1 NCL       0.047700
     67 H58A        -8.3220    -0.6810     0.9190 h1         1 NCL       0.047700
     68 H63         -9.5350     0.3440    -1.5950 h1         1 NCL       0.032450
     69 H63A       -10.3550    -0.2340    -0.1380 h1         1 NCL       0.032450
     70 H66        -11.5500     1.9140     0.1100 hc         1 NCL       0.052700
     71 H77        -12.6350     0.1450    -1.2490 hc         1 NCL       0.034533
     72 H77A       -13.0590     1.7510    -1.8580 hc         1 NCL       0.034533
     73 H77B       -11.8650     0.7650    -2.7190 hc         1 NCL       0.034533
     74 H69        -10.1890     2.7740    -2.5140 hc         1 NCL       0.039700
     75 H69A       -11.3580     3.7180    -1.5890 hc         1 NCL       0.039700
     76 H72         -8.9730     4.4270    -1.1270 hc         1 NCL       0.045450
     77 H72A        -9.8000     3.8860     0.3310 hc         1 NCL       0.045450
     78 H75         -7.5390     2.9380     0.2460 h1         1 NCL       0.027200
     79 H75A        -7.8210     2.2470    -1.3590 h1         1 NCL       0.027200
@<TRIPOS>BOND
     1     1     2 2   
     2     2     3 1   
     3     2    12 1   
     4     3     4 1   
     5     3    39 1   
     6     3    40 1   
     7     4     5 1   
     8     4    41 1   
     9     4    42 1   
    10     5     6 1   
    11     5    11 1   
    12     6     7 1   
    13     6    43 1   
    14     6    44 1   
    15     7     8 1   
    16     7     9 1   
    17     7    45 1   
    18     8    46 1   
    19     8    47 1   
    20     8    48 1   
    21     9    10 1   
    22     9    49 1   
    23     9    50 1   
    24    10    11 1   
    25    10    51 1   
    26    10    52 1   
    27    11    53 1   
    28    11    54 1   
    29    12    13 1   
    30    12    55 1   
    31    13    14 ar  
    32    13    17 ar  
    33    14    15 ar  
    34    14    56 1   
    35    15    16 ar  
    36    15    19 ar  
    37    16    24 ar  
    38    17    18 ar  
    39    17    57 1   
    40    18    19 ar  
    41    18    58 1   
    42    19    20 ar  
    43    20    21 ar  
    44    20    59 1   
    45    21    22 ar  
    46    21    24 ar  
    47    22    23 ar  
    48    22    60 1   
    49    23    26 ar  
    50    23    61 1   
    51    24    25 ar  
    52    25    26 ar  
    53    25    62 1   
    54    26    27 1   
    55    27    28 1   
    56    27    63 1   
    57    28    29 2   
    58    28    30 1   
    59    30    31 1   
    60    30    64 1   
    61    30    65 1   
    62    31    32 1   
    63    31    66 1   
    64    31    67 1   
    65    32    33 1   
    66    32    38 1   
    67    33    34 1   
    68    33    68 1   
    69    33    69 1   
    70    34    35 1   
    71    34    36 1   
    72    34    70 1   
    73    35    71 1   
    74    35    72 1   
    75    35    73 1   
    76    36    37 1   
    77    36    74 1   
    78    36    75 1   
    79    37    38 1   
    80    37    76 1   
    81    37    77 1   
    82    38    78 1   
    83    38    79 1   
@<TRIPOS>SUBSTRUCTURE
     1 NCL         1 TEMP              0 ****  ****    0 ROOT
