@<TRIPOS>MOLECULE
NCM
   18    19     1     0     0
SMALL
abcg2


@<TRIPOS>ATOM
      1 C1          46.7050    44.1340    15.1860 c5         1 NCM      -0.183700
      2 C2          45.2240    43.9340    14.9480 c          1 NCM       0.571100
      3 C3          45.0990    43.3210    13.5560 c5         1 NCM      -0.188400
      4 C4          46.5610    43.3010    13.0760 c5         1 NCM      -0.072700
      5 C5          47.0100    44.7560    12.8390 c5         1 NCM      -0.081400
      6 C6          47.0940    45.3400    14.2800 c5         1 NCM      -0.073400
      7 C7          47.2980    42.9550    14.3870 c5         1 NCM      -0.078400
      8 O2          44.3130    44.2190    15.6970 o          1 NCM      -0.514100
      9 H1          46.9740    44.2450    16.2330 hc         1 NCM       0.090700
     10 H31         44.6960    42.3080    13.6590 hc         1 NCM       0.073200
     11 H32         44.4130    43.8950    12.9320 hc         1 NCM       0.073200
     12 H4          46.7420    42.6330    12.2370 hc         1 NCM       0.072700
     13 H51         47.9840    44.7840    12.3500 hc         1 NCM       0.048200
     14 H52         46.3060    45.3010    12.2100 hc         1 NCM       0.048200
     15 H61         46.4380    46.1970    14.4330 hc         1 NCM       0.051700
     16 H62         48.1090    45.6510    14.5270 hc         1 NCM       0.051700
     17 H71         48.3830    43.0170    14.3000 hc         1 NCM       0.055700
     18 H72         47.0220    41.9790    14.7910 hc         1 NCM       0.055700
@<TRIPOS>BOND
     1     1     2 1   
     2     1     6 1   
     3     1     7 1   
     4     1     9 1   
     5     2     3 1   
     6     2     8 2   
     7     3     4 1   
     8     3    10 1   
     9     3    11 1   
    10     4     5 1   
    11     4     7 1   
    12     4    12 1   
    13     5     6 1   
    14     5    13 1   
    15     5    14 1   
    16     6    15 1   
    17     6    16 1   
    18     7    17 1   
    19     7    18 1   
@<TRIPOS>SUBSTRUCTURE
     1 NCM         1 TEMP              0 ****  ****    0 ROOT
