@<TRIPOS>MOLECULE
NCM
   18    19     1     0     0
SMALL
No Charge or Current Charge


@<TRIPOS>ATOM
      1 C1          46.6540    44.2000    15.1520 c5         1 NCM      -0.183700
      2 C2          45.1370    43.9770    14.9850 c          1 NCM       0.571100
      3 C3          45.0630    43.3950    13.5620 c5         1 NCM      -0.188400
      4 C4          46.5550    43.2670    13.0970 c5         1 NCM      -0.072700
      5 C5          47.0500    44.7260    12.8070 c5         1 NCM      -0.081400
      6 C6          47.1080    45.3780    14.2320 c5         1 NCM      -0.073400
      7 C7          47.2840    42.9880    14.4240 c5         1 NCM      -0.078400
      8 O2          44.4140    43.6430    15.9150 o          1 NCM      -0.514100
      9 H1          46.9370    44.2810    16.2070 hc         1 NCM       0.090700
     10 H31         44.5060    42.4520    13.5720 hc         1 NCM       0.073200
     11 H32         44.5320    44.1050    12.9190 hc         1 NCM       0.073200
     12 H4          46.7350    42.5480    12.2880 hc         1 NCM       0.072700
     13 H51         48.0430    44.7190    12.3430 hc         1 NCM       0.048200
     14 H52         46.3900    45.2710    12.1220 hc         1 NCM       0.048200
     15 H61         46.4530    46.2530    14.3220 hc         1 NCM       0.051700
     16 H62         48.1250    45.7090    14.4740 hc         1 NCM       0.051700
     17 H71         48.3780    43.0330    14.3480 hc         1 NCM       0.055700
     18 H72         47.0090    42.0250    14.8720 hc         1 NCM       0.055700
@<TRIPOS>BOND
     1     1     2 1   
     2     1     6 1   
     3     1     7 1   
     4     1     9 1   
     5     2     3 1   
     6     2     8 2   
     7     3     4 1   
     8     3    10 1   
     9     3    11 1   
    10     4     5 1   
    11     4     7 1   
    12     4    12 1   
    13     5     6 1   
    14     5    13 1   
    15     5    14 1   
    16     6    15 1   
    17     6    16 1   
    18     7    17 1   
    19     7    18 1   
@<TRIPOS>SUBSTRUCTURE
     1 NCM         1 TEMP              0 ****  ****    0 ROOT
