@<TRIPOS>MOLECULE
NCQ
   79    83     1     0     0
SMALL
No Charge or Current Charge


@<TRIPOS>ATOM
      1 O39          4.4000     0.8520     1.6170 o          1 NCQ      -0.573100
      2 C9           5.2150     0.0880     1.1140 c          1 NCQ       0.607600
      3 C10          6.7150     0.3840     1.1560 c3         1 NCQ      -0.164400
      4 C13          7.0660     1.5040     0.1570 c3         1 NCQ       0.181800
      5 N16          8.4640     2.0080     0.2480 n3         1 NCQ      -0.733100
      6 C36          9.4790     0.9590    -0.0610 c3         1 NCQ       0.176050
      7 C33         10.9700     1.3520     0.0730 c3         1 NCQ      -0.072400
      8 C30         11.4770     2.2830    -1.0500 c3         1 NCQ      -0.070150
      9 C27         11.1710     3.7830    -0.8490 c3         1 NCQ      -0.070150
     10 C73          9.8520     4.1150    -0.1160 c3         1 NCQ      -0.072400
     11 C11          8.6260     3.2710    -0.5240 c3         1 NCQ       0.176050
     12 N7           4.8860    -1.1150     0.5010 ns         1 NCQ      -0.150000
     13 C6           3.6400    -1.7530     0.2470 ca         1 NCQ      -0.002500
     14 C40          3.6740    -3.0450    -0.3070 ca         1 NCQ      -0.137500
     15 C42          2.4840    -3.7340    -0.5870 ca         1 NCQ      -0.064500
     16 C4           2.3870    -1.1560     0.5100 ca         1 NCQ      -0.157000
     17 C3           1.1840    -1.8300     0.2360 ca         1 NCQ       0.328500
     18 N1           0.0050    -1.2230     0.5040 nb         1 NCQ      -0.675000
     19 C44          1.2440    -3.1310    -0.3160 ca         1 NCQ      -0.118000
     20 C45          0.0490    -3.8140    -0.5940 ca         1 NCQ      -0.025000
     21 C2          -1.1690    -3.1740    -0.3110 ca         1 NCQ      -0.118000
     22 C87         -1.1520    -1.8730     0.2400 ca         1 NCQ       0.328500
     23 C47         -2.3890    -3.8210    -0.5750 ca         1 NCQ      -0.064500
     24 C49         -3.6040    -3.1770    -0.2900 ca         1 NCQ      -0.137500
     25 C51         -3.6090    -1.8790     0.2650 ca         1 NCQ      -0.002500
     26 C85         -2.3780    -1.2440     0.5180 ca         1 NCQ      -0.157000
     27 N52         -4.7970    -1.1620     0.5760 ns         1 NCQ      -0.150000
     28 C54         -6.1390    -1.5200     0.5550 c          1 NCQ       0.607600
     29 O84         -6.5520    -2.6390     0.2740 o          1 NCQ      -0.573100
     30 C55         -7.0960    -0.3990     0.9620 c3         1 NCQ      -0.164400
     31 C58         -7.8530     0.1310    -0.2720 c3         1 NCQ       0.181800
     32 N61         -8.9500     1.0910     0.0310 n3         1 NCQ      -0.733100
     33 C75         -9.8100     1.3120    -1.1650 c3         1 NCQ       0.176050
     34 C72        -11.2090     1.8800    -0.8470 c3         1 NCQ      -0.072400
     35 C69        -11.3120     3.4210    -0.7900 c3         1 NCQ      -0.070150
     36 C66        -10.1570     4.1520    -0.0730 c3         1 NCQ      -0.070150
     37 C29         -9.5240     3.3830     1.1080 c3         1 NCQ      -0.072400
     38 C31         -8.4610     2.3420     0.6810 c3         1 NCQ       0.176050
     39 H10          6.9790     0.7240     2.1630 hc         1 NCQ       0.067450
     40 H10A         7.2750    -0.5220     0.9000 hc         1 NCQ       0.067450
     41 H13          6.8590     1.1490    -0.8630 h1         1 NCQ       0.047200
     42 H13A         6.3730     2.3360     0.3470 h1         1 NCQ       0.047200
     43 H36          9.3360     0.1110     0.6190 h1         1 NCQ       0.027325
     44 H36A         9.3140     0.5740    -1.0770 h1         1 NCQ       0.027325
     45 H33         11.1620     1.7920     1.0590 hc         1 NCQ       0.045325
     46 H33A        11.5570     0.4260     0.0310 hc         1 NCQ       0.045325
     47 H30         12.5630     2.1650    -1.1480 hc         1 NCQ       0.035450
     48 H30A        11.0510     1.9520    -2.0060 hc         1 NCQ       0.035450
     49 H27         11.9950     4.2410    -0.2880 hc         1 NCQ       0.035450
     50 H27A        11.1670     4.2690    -1.8330 hc         1 NCQ       0.035450
     51 H73         10.0000     4.0280     0.9680 hc         1 NCQ       0.045325
     52 H73A         9.6230     5.1710    -0.3020 hc         1 NCQ       0.045325
     53 H11          8.6530     3.0710    -1.6040 h1         1 NCQ       0.027325
     54 H11A         7.7480     3.9070    -0.3460 h1         1 NCQ       0.027325
     55 HN7          5.6850    -1.6370     0.1640 hn         1 NCQ       0.150500
     56 H40          4.6280    -3.5220    -0.5210 ha         1 NCQ       0.130500
     57 H42          2.5290    -4.7340    -1.0140 ha         1 NCQ       0.116000
     58 H4           2.3180    -0.1580     0.9260 ha         1 NCQ       0.147000
     59 H45          0.0660    -4.8150    -1.0200 ha         1 NCQ       0.117000
     60 H47         -2.3990    -4.8210    -1.0030 ha         1 NCQ       0.116000
     61 H49         -4.5260    -3.7020    -0.5150 ha         1 NCQ       0.130500
     62 H85         -2.3650    -0.2430     0.9420 ha         1 NCQ       0.147000
     63 HN52        -4.6300    -0.2050     0.8600 hn         1 NCQ       0.150500
     64 H55         -7.8290    -0.8000     1.6710 hc         1 NCQ       0.067450
     65 H55A        -6.5300     0.4190     1.4210 hc         1 NCQ       0.067450
     66 H58         -7.1310     0.5900    -0.9630 h1         1 NCQ       0.047200
     67 H58A        -8.2750    -0.7410    -0.7920 h1         1 NCQ       0.047200
     68 H75         -9.3040     1.9530    -1.9000 h1         1 NCQ       0.027325
     69 H75A        -9.9800     0.3450    -1.6580 h1         1 NCQ       0.027325
     70 H72        -11.9080     1.5260    -1.6140 hc         1 NCQ       0.045325
     71 H72A       -11.5620     1.4510     0.0990 hc         1 NCQ       0.045325
     72 H69        -11.3870     3.8130    -1.8120 hc         1 NCQ       0.035450
     73 H69A       -12.2570     3.6790    -0.2960 hc         1 NCQ       0.035450
     74 H66         -9.3730     4.3930    -0.8020 hc         1 NCQ       0.035450
     75 H66A       -10.5360     5.1160     0.2920 hc         1 NCQ       0.035450
     76 H29         -9.0240     4.1140     1.7540 hc         1 NCQ       0.045325
     77 H29A       -10.2980     2.9090     1.7230 hc         1 NCQ       0.045325
     78 H31         -7.9210     2.0810     1.5990 h1         1 NCQ       0.027325
     79 H31A        -7.7350     2.8410     0.0240 h1         1 NCQ       0.027325
@<TRIPOS>BOND
     1     1     2 2   
     2     2     3 1   
     3     2    12 1   
     4     3     4 1   
     5     3    39 1   
     6     3    40 1   
     7     4     5 1   
     8     4    41 1   
     9     4    42 1   
    10     5     6 1   
    11     5    11 1   
    12     6     7 1   
    13     6    43 1   
    14     6    44 1   
    15     7     8 1   
    16     7    45 1   
    17     7    46 1   
    18     8     9 1   
    19     8    47 1   
    20     8    48 1   
    21     9    10 1   
    22     9    49 1   
    23     9    50 1   
    24    10    11 1   
    25    10    51 1   
    26    10    52 1   
    27    11    53 1   
    28    11    54 1   
    29    12    13 1   
    30    12    55 1   
    31    13    14 ar  
    32    13    16 ar  
    33    14    15 ar  
    34    14    56 1   
    35    15    19 ar  
    36    15    57 1   
    37    16    17 ar  
    38    16    58 1   
    39    17    18 ar  
    40    17    19 ar  
    41    18    22 ar  
    42    19    20 ar  
    43    20    21 ar  
    44    20    59 1   
    45    21    22 ar  
    46    21    23 ar  
    47    22    26 ar  
    48    23    24 ar  
    49    23    60 1   
    50    24    25 ar  
    51    24    61 1   
    52    25    26 ar  
    53    25    27 1   
    54    26    62 1   
    55    27    28 1   
    56    27    63 1   
    57    28    29 2   
    58    28    30 1   
    59    30    31 1   
    60    30    64 1   
    61    30    65 1   
    62    31    32 1   
    63    31    66 1   
    64    31    67 1   
    65    32    33 1   
    66    32    38 1   
    67    33    34 1   
    68    33    68 1   
    69    33    69 1   
    70    34    35 1   
    71    34    70 1   
    72    34    71 1   
    73    35    36 1   
    74    35    72 1   
    75    35    73 1   
    76    36    37 1   
    77    36    74 1   
    78    36    75 1   
    79    37    38 1   
    80    37    76 1   
    81    37    77 1   
    82    38    78 1   
    83    38    79 1   
@<TRIPOS>SUBSTRUCTURE
     1 NCQ         1 TEMP              0 ****  ****    0 ROOT
