@<TRIPOS>MOLECULE
NCQ
   79    83     1     0     0
SMALL
bcc


@<TRIPOS>ATOM
      1 O39          4.5550     0.9250     0.0950 o          1 NCQ      -0.573100
      2 C9           5.3470     0.0030     0.0860 c          1 NCQ       0.674600
      3 C10          6.8440     0.1900     0.2030 c3         1 NCQ      -0.164400
      4 C13          7.2750     1.6360     0.0020 c3         1 NCQ       0.181800
      5 N16          8.6880     1.8340     0.2870 n3         1 NCQ      -0.733100
      6 C36          9.5150     1.2650    -0.7630 c3         1 NCQ       0.176050
      7 C33         11.0220     1.3130    -0.5350 c3         1 NCQ      -0.072400
      8 C30         11.6420     2.7000    -0.6850 c3         1 NCQ      -0.070150
      9 C27         11.5490     3.5880     0.5570 c3         1 NCQ      -0.070150
     10 C73         10.2640     3.4330     1.3690 c3         1 NCQ      -0.072400
     11 C11          8.9800     3.2350     0.5670 c3         1 NCQ       0.176050
     12 N7           4.9740    -1.3060    -0.0110 ns         1 NCQ      -0.476100
     13 C6           3.7000    -1.8570    -0.0690 ca         1 NCQ       0.090100
     14 C40          3.6630    -3.2860    -0.1410 ca         1 NCQ      -0.155500
     15 C42          2.4850    -3.9520    -0.1960 ca         1 NCQ      -0.082500
     16 C4           2.5290    -1.1440    -0.0600 ca         1 NCQ      -0.240300
     17 C3           1.2780    -1.8180    -0.1150 ca         1 NCQ       0.459100
     18 N1           0.1680    -1.0810    -0.0980 nb         1 NCQ      -0.675000
     19 C44          1.2510    -3.2460    -0.1840 ca         1 NCQ      -0.183300
     20 C45          0.0170    -3.8770    -0.2350 ca         1 NCQ      -0.043000
     21 C2          -1.1460    -3.1160    -0.2150 ca         1 NCQ      -0.183300
     22 C87         -1.0150    -1.6950    -0.1440 ca         1 NCQ       0.459100
     23 C47         -2.4470    -3.6800    -0.2610 ca         1 NCQ      -0.082500
     24 C49         -3.5630    -2.9050    -0.2340 ca         1 NCQ      -0.155500
     25 C51         -3.4380    -1.4840    -0.1540 ca         1 NCQ       0.090100
     26 C85         -2.1920    -0.9090    -0.1160 ca         1 NCQ      -0.240300
     27 N52         -4.5350    -0.6260    -0.1180 ns         1 NCQ      -0.476100
     28 C54         -5.8670    -0.9010    -0.0150 c          1 NCQ       0.674600
     29 O84         -6.3310    -2.0250    -0.0210 o          1 NCQ      -0.573100
     30 C55         -6.7180     0.3400     0.1480 c3         1 NCQ      -0.164400
     31 C58         -8.1610     0.1260    -0.2900 c3         1 NCQ       0.181800
     32 N61         -9.0310     1.2170     0.1150 n3         1 NCQ      -0.733100
     33 C75        -10.4310     0.8090     0.1090 c3         1 NCQ       0.176050
     34 C72        -11.3130     1.6750     1.0050 c3         1 NCQ      -0.072400
     35 C69        -11.9180     2.9260     0.3660 c3         1 NCQ      -0.070150
     36 C66        -10.9980     3.6880    -0.5890 c3         1 NCQ      -0.070150
     37 C29         -9.5160     3.6720    -0.2260 c3         1 NCQ      -0.072400
     38 C31         -8.7720     2.4150    -0.6650 c3         1 NCQ       0.176050
     39 H10          7.1470    -0.1410     1.2020 hc         1 NCQ       0.067450
     40 H10A         7.3380    -0.4830    -0.5010 hc         1 NCQ       0.067450
     41 H13          7.0090     1.9670    -1.0160 h1         1 NCQ       0.047200
     42 H13A         6.7020     2.2600     0.6880 h1         1 NCQ       0.047200
     43 H36          9.2340     0.2160    -0.8830 h1         1 NCQ       0.027325
     44 H36A         9.3030     1.7500    -1.7350 h1         1 NCQ       0.027325
     45 H33         11.2730     0.8710     0.4340 hc         1 NCQ       0.045325
     46 H33A        11.4630     0.6540    -1.2880 hc         1 NCQ       0.045325
     47 H30         12.6930     2.6030    -0.9650 hc         1 NCQ       0.035450
     48 H30A        11.1580     3.1990    -1.5310 hc         1 NCQ       0.035450
     49 H27         12.3970     3.3860     1.2180 hc         1 NCQ       0.035450
     50 H27A        11.6610     4.6300     0.2460 hc         1 NCQ       0.035450
     51 H73         10.3490     2.5920     2.0620 hc         1 NCQ       0.045325
     52 H73A        10.1490     4.3210     1.9970 hc         1 NCQ       0.045325
     53 H11          8.9980     3.8490    -0.3500 h1         1 NCQ       0.027325
     54 H11A         8.1520     3.6200     1.1660 h1         1 NCQ       0.027325
     55 HN7          5.7280    -1.9760    -0.0150 hn         1 NCQ       0.317000
     56 H40          4.5950    -3.8380    -0.1480 ha         1 NCQ       0.148500
     57 H42          2.4730    -5.0330    -0.2470 ha         1 NCQ       0.134000
     58 H4           2.5150    -0.0680    -0.0100 ha         1 NCQ       0.165000
     59 H45         -0.0420    -4.9590    -0.2860 ha         1 NCQ       0.135000
     60 H47         -2.5460    -4.7570    -0.3200 ha         1 NCQ       0.134000
     61 H49         -4.5350    -3.3660    -0.2750 ha         1 NCQ       0.148500
     62 H85         -2.0820     0.1670    -0.0590 ha         1 NCQ       0.165000
     63 HN52        -4.2950     0.3540    -0.1060 hn         1 NCQ       0.317000
     64 H55         -6.7050     0.6070     1.2100 hc         1 NCQ       0.067450
     65 H55A        -6.2540     1.1750    -0.3810 hc         1 NCQ       0.067450
     66 H58         -8.1940    -0.0520    -1.3790 h1         1 NCQ       0.047200
     67 H58A        -8.5270    -0.7860     0.1820 h1         1 NCQ       0.047200
     68 H75        -10.8450     0.7550    -0.9130 h1         1 NCQ       0.027325
     69 H75A       -10.4650    -0.2110     0.4970 h1         1 NCQ       0.027325
     70 H72        -12.1340     1.0610     1.3840 hc         1 NCQ       0.045325
     71 H72A       -10.7200     1.9480     1.8820 hc         1 NCQ       0.045325
     72 H69        -12.8270     2.6520    -0.1750 hc         1 NCQ       0.035450
     73 H69A       -12.2440     3.5900     1.1720 hc         1 NCQ       0.035450
     74 H66        -11.1010     3.2860    -1.6020 hc         1 NCQ       0.035450
     75 H66A       -11.3450     4.7230    -0.6540 hc         1 NCQ       0.035450
     76 H29         -9.0300     4.5080    -0.7370 hc         1 NCQ       0.045325
     77 H29A        -9.3650     3.8430     0.8440 hc         1 NCQ       0.045325
     78 H31         -7.7030     2.6290    -0.6100 h1         1 NCQ       0.027325
     79 H31A        -8.9930     2.2430    -1.7360 h1         1 NCQ       0.027325
@<TRIPOS>BOND
     1     1     2 2   
     2     2     3 1   
     3     2    12 1   
     4     3     4 1   
     5     3    39 1   
     6     3    40 1   
     7     4     5 1   
     8     4    41 1   
     9     4    42 1   
    10     5     6 1   
    11     5    11 1   
    12     6     7 1   
    13     6    43 1   
    14     6    44 1   
    15     7     8 1   
    16     7    45 1   
    17     7    46 1   
    18     8     9 1   
    19     8    47 1   
    20     8    48 1   
    21     9    10 1   
    22     9    49 1   
    23     9    50 1   
    24    10    11 1   
    25    10    51 1   
    26    10    52 1   
    27    11    53 1   
    28    11    54 1   
    29    12    13 1   
    30    12    55 1   
    31    13    14 ar  
    32    13    16 ar  
    33    14    15 ar  
    34    14    56 1   
    35    15    19 ar  
    36    15    57 1   
    37    16    17 ar  
    38    16    58 1   
    39    17    18 ar  
    40    17    19 ar  
    41    18    22 ar  
    42    19    20 ar  
    43    20    21 ar  
    44    20    59 1   
    45    21    22 ar  
    46    21    23 ar  
    47    22    26 ar  
    48    23    24 ar  
    49    23    60 1   
    50    24    25 ar  
    51    24    61 1   
    52    25    26 ar  
    53    25    27 1   
    54    26    62 1   
    55    27    28 1   
    56    27    63 1   
    57    28    29 2   
    58    28    30 1   
    59    30    31 1   
    60    30    64 1   
    61    30    65 1   
    62    31    32 1   
    63    31    66 1   
    64    31    67 1   
    65    32    33 1   
    66    32    38 1   
    67    33    34 1   
    68    33    68 1   
    69    33    69 1   
    70    34    35 1   
    71    34    70 1   
    72    34    71 1   
    73    35    36 1   
    74    35    72 1   
    75    35    73 1   
    76    36    37 1   
    77    36    74 1   
    78    36    75 1   
    79    37    38 1   
    80    37    76 1   
    81    37    77 1   
    82    38    78 1   
    83    38    79 1   
@<TRIPOS>SUBSTRUCTURE
     1 NCQ         1 TEMP              0 ****  ****    0 ROOT
