@<TRIPOS>MOLECULE
NCR
   18    18     1     0     0
SMALL
abcg2


@<TRIPOS>ATOM
      1 C1          -0.3800    -0.0080     2.0420 ca         1 NCR      -0.126300
      2 C2          -0.9180    -0.0880     0.7790 ca         1 NCR      -0.012000
      3 C3          -0.0990    -0.1340    -0.3560 ca         1 NCR      -0.295200
      4 C4           1.3020    -0.0990    -0.2440 ca         1 NCR       0.237100
      5 C5           1.8360    -0.0180     1.0460 ca         1 NCR      -0.174000
      6 C6           1.0190     0.0260     2.1510 ca         1 NCR      -0.021000
      7 C7          -1.2440     0.0410     3.2660 c3         1 NCR      -0.041800
      8 N3          -0.7310    -0.2200    -1.6410 no         1 NCR       0.705200
      9 O1N         -0.0180    -0.2580    -2.6370 o          1 NCR      -0.413000
     10 O2N         -1.9340    -0.2520    -1.7090 o          1 NCR      -0.413000
     11 O4           2.1590    -0.1370    -1.2560 oh         1 NCR      -0.520100
     12 H2          -1.9920    -0.1150     0.6570 ha         1 NCR       0.148000
     13 H5           2.9120     0.0100     1.1570 ha         1 NCR       0.142000
     14 H6           1.4740     0.0900     3.1320 ha         1 NCR       0.124000
     15 H71         -1.0510     0.9410     3.8510 hc         1 NCR       0.047367
     16 H72         -2.3020     0.0320     3.0070 hc         1 NCR       0.047367
     17 H73         -1.0550    -0.8130     3.9180 hc         1 NCR       0.047367
     18 HO4          1.6590    -0.1880    -2.0910 ho         1 NCR       0.518000
@<TRIPOS>BOND
     1     1     2 ar  
     2     1     6 ar  
     3     1     7 1   
     4     2     3 ar  
     5     2    12 1   
     6     3     4 ar  
     7     3     8 1   
     8     4     5 ar  
     9     4    11 1   
    10     5     6 ar  
    11     5    13 1   
    12     6    14 1   
    13     7    15 1   
    14     7    16 1   
    15     7    17 1   
    16     8     9 1   
    17     8    10 1   
    18    11    18 1   
@<TRIPOS>SUBSTRUCTURE
     1 NCR         1 TEMP              0 ****  ****    0 ROOT
