@<TRIPOS>MOLECULE
NCR
   18    18     1     0     0
SMALL
No Charge or Current Charge


@<TRIPOS>ATOM
      1 C1          -0.3500     0.0050     2.0600 ca         1 NCR      -0.126300
      2 C2          -0.9150    -0.1260     0.7770 ca         1 NCR      -0.012000
      3 C3          -0.0960    -0.1630    -0.3810 ca         1 NCR      -0.295200
      4 C4           1.3090    -0.0670    -0.2200 ca         1 NCR       0.237100
      5 C5           1.8640     0.0610     1.0610 ca         1 NCR      -0.174000
      6 C6           1.0440     0.0960     2.1990 ca         1 NCR      -0.021000
      7 C7          -1.2470     0.0390     3.2890 c3         1 NCR      -0.041800
      8 N3          -0.7470    -0.3030    -1.7250 no         1 NCR       0.705200
      9 O1N         -0.0250    -0.3350    -2.7300 o          1 NCR      -0.413000
     10 O2N         -1.9810    -0.3810    -1.7730 o          1 NCR      -0.413000
     11 O4           2.1690    -0.0940    -1.2760 oh         1 NCR      -0.520100
     12 H2          -1.9990    -0.2000     0.6940 ha         1 NCR       0.148000
     13 H5           2.9430     0.1320     1.1750 ha         1 NCR       0.142000
     14 H6           1.4940     0.1940     3.1850 ha         1 NCR       0.124000
     15 H71         -0.7570     0.5400     4.1330 hc         1 NCR       0.047367
     16 H72         -2.1810     0.5780     3.0870 hc         1 NCR       0.047367
     17 H73         -1.5090    -0.9760     3.6100 hc         1 NCR       0.047367
     18 HO4          1.6220    -0.1880    -2.0920 ho         1 NCR       0.518000
@<TRIPOS>BOND
     1     1     2 ar  
     2     1     6 ar  
     3     1     7 1   
     4     2     3 ar  
     5     2    12 1   
     6     3     4 ar  
     7     3     8 1   
     8     4     5 ar  
     9     4    11 1   
    10     5     6 ar  
    11     5    13 1   
    12     6    14 1   
    13     7    15 1   
    14     7    16 1   
    15     7    17 1   
    16     8     9 1   
    17     8    10 1   
    18    11    18 1   
@<TRIPOS>SUBSTRUCTURE
     1 NCR         1 TEMP              0 ****  ****    0 ROOT
