@<TRIPOS>MOLECULE
NCS
   84    91     1     0     0
SMALL
abcg2


@<TRIPOS>ATOM
      1 C1           4.0760    -5.1530    -9.4410 ca         1 NCS      -0.100300
      2 C2           5.2320    -5.2930    -8.6730 ca         1 NCS      -0.064000
      3 C3           6.3320    -4.5350    -9.0390 ca         1 NCS      -0.054800
      4 C4           6.2550    -3.6300   -10.1170 ca         1 NCS      -0.141300
      5 C5           5.1110    -3.4930   -10.8710 ca         1 NCS      -0.043000
      6 C6           4.0190    -4.3040   -10.5400 ca         1 NCS      -0.082300
      7 C7           7.6960    -4.4880    -8.4980 ce         1 NCS      -0.172200
      8 C8           8.4330    -3.6100    -9.1890 c2         1 NCS      -0.214200
      9 C9           7.6060    -2.9440   -10.2790 c5         1 NCS       0.242500
     10 O9           8.1760    -3.0760   -11.5780 oh         1 NCS      -0.618000
     11 C10          2.7030    -4.4270   -11.2650 c5         1 NCS      -0.027400
     12 C11          1.9520    -5.5370   -10.4870 c5         1 NCS       0.147300
     13 C12          2.7580    -5.8290    -9.2070 c5         1 NCS       0.209600
     14 C13          7.4540    -1.4360   -10.0630 c5         1 NCS       0.158300
     15 O14          8.7580    -0.8090   -10.0400 os         1 NCS      -0.407100
     16 C15          8.9600    -0.1780    -8.8720 c          1 NCS       0.772200
     17 O15          9.9710     0.4030    -8.5880 o          1 NCS      -0.459000
     18 O16          7.8910    -0.2720    -8.0720 os         1 NCS      -0.429100
     19 C17          6.8400    -1.0260    -8.7160 c5         1 NCS       0.131600
     20 O18          1.9620    -6.7140   -11.3230 os         1 NCS      -0.414100
     21 C19          2.4160    -6.4740   -12.5590 c          1 NCS       0.676100
     22 O19          2.5120    -7.3440   -13.3830 o          1 NCS      -0.433000
     23 C20          2.7440    -4.9920   -12.7450 c5         1 NCS      -0.210700
     24 C21          1.5240    -4.3570   -13.4430 c          1 NCS       0.592300
     25 O21          0.3980    -4.7530   -13.1640 o          1 NCS      -0.530100
     26 C22          1.7830    -3.2570   -14.3370 ce         1 NCS      -0.328200
     27 C23          3.0390    -2.9620   -14.7400 cf         1 NCS      -0.043200
     28 C24          4.2070    -3.7080   -14.3420 ca         1 NCS      -0.127800
     29 C25          4.0660    -4.7690   -13.4340 ca         1 NCS       0.003700
     30 C26          5.1620    -5.5310   -13.0590 ca         1 NCS      -0.189000
     31 C27          6.4260    -5.1890   -13.5290 ca         1 NCS       0.163100
     32 O27          7.5680    -5.7940   -13.1160 os         1 NCS      -0.350100
     33 C28          6.5780    -4.1370   -14.4340 ca         1 NCS      -0.137000
     34 C29          5.4890    -3.3990   -14.8590 ca         1 NCS       0.001700
     35 C30          5.6920    -2.2730   -15.8360 c3         1 NCS      -0.059800
     36 C31          7.4670    -6.8820   -12.1840 c3         1 NCS       0.141900
     37 O1           2.1370    -5.2130    -8.0660 os         1 NCS      -0.532000
     38 C14          1.1660    -6.0080    -7.4170 c6         1 NCS       0.378300
     39 C16          0.4560    -5.0810    -6.4230 c6         1 NCS       0.080300
     40 N2          -0.0230    -3.8350    -7.1020 ny         1 NCS      -0.820000
     41 C2M         -1.2380    -3.9870    -7.9580 c3         1 NCS       0.086900
     42 C18          1.3800    -4.6890    -5.2810 c6         1 NCS       0.104300
     43 O3           0.5910    -3.9240    -4.3760 oh         1 NCS      -0.687000
     44 C32          1.9390    -5.9540    -4.6240 c6         1 NCS       0.127300
     45 O4           0.9030    -6.6880    -3.9860 oh         1 NCS      -0.690000
     46 C33          2.6160    -6.8230    -5.6780 c6         1 NCS       0.173300
     47 C5M          3.1080    -8.1520    -5.1500 c3         1 NCS      -0.086100
     48 O5           1.7050    -7.1160    -6.7640 os         1 NCS      -0.430000
     49 H2           5.2670    -5.9730    -7.8310 ha         1 NCS       0.128000
     50 H5           5.0720    -2.8200   -11.7180 ha         1 NCS       0.144000
     51 H7           8.0340    -5.0950    -7.6690 ha         1 NCS       0.211000
     52 H8           9.4740    -3.3680    -9.0310 ha         1 NCS       0.231000
     53 HO9          8.1880    -4.0110   -11.8260 ho         1 NCS       0.468000
     54 H10          2.1580    -3.4840   -11.2520 hc         1 NCS       0.084700
     55 H11          0.9160    -5.2920   -10.2720 h1         1 NCS       0.067700
     56 H12          2.8440    -6.9020    -9.0340 h1         1 NCS       0.107700
     57 H13          6.9120    -1.0180   -10.9100 h1         1 NCS       0.100700
     58 H171         5.9750    -0.3790    -8.8320 h1         1 NCS       0.074700
     59 H172         6.5960    -1.8720    -8.0810 h1         1 NCS       0.074700
     60 H22          0.9260    -2.7060   -14.7030 ha         1 NCS       0.214000
     61 H23          3.1750    -2.1390   -15.4280 ha         1 NCS       0.194000
     62 H26          5.0470    -6.3320   -12.3460 ha         1 NCS       0.126000
     63 H28          7.5740    -3.8970   -14.7850 ha         1 NCS       0.146000
     64 H301         6.7410    -2.1980   -16.1160 hc         1 NCS       0.056700
     65 H302         5.1060    -2.4250   -16.7450 hc         1 NCS       0.056700
     66 H303         5.3840    -1.3150   -15.4090 hc         1 NCS       0.056700
     67 H311         8.4870    -7.2090   -12.0050 h1         1 NCS       0.052033
     68 H312         7.0130    -6.5430   -11.2510 h1         1 NCS       0.052033
     69 H313         6.8830    -7.7020   -12.6060 h1         1 NCS       0.052033
     70 H1           0.4610    -6.4160    -8.1450 h2         1 NCS       0.101700
     71 H6          -0.4200    -5.5910    -6.0260 hx         1 NCS       0.139700
     72 HN21        -0.2050    -3.1420    -6.3690 hn         1 NCS       0.517000
     73 HN22         0.7510    -3.4730    -7.6670 hn         1 NCS       0.517000
     74 HM21        -0.9900    -4.6060    -8.8130 hx         1 NCS       0.103033
     75 HM22        -1.5420    -2.9970    -8.2860 hx         1 NCS       0.103033
     76 HM23        -2.0190    -4.4510    -7.3640 hx         1 NCS       0.103033
     77 H3           2.2120    -4.0920    -5.6620 h1         1 NCS       0.071700
     78 HO3          1.1730    -3.3950    -3.8160 ho         1 NCS       0.487000
     79 H4           2.7010    -5.6520    -3.8950 h1         1 NCS       0.070700
     80 HO4          0.4100    -6.0670    -3.4330 ho         1 NCS       0.522000
     81 H9           3.4590    -6.2470    -6.0750 h1         1 NCS       0.053700
     82 HM51         3.6190    -8.7000    -5.9410 hc         1 NCS       0.067367
     83 HM52         2.2770    -8.7530    -4.7820 hc         1 NCS       0.067367
     84 HM53         3.8110    -7.9890    -4.3320 hc         1 NCS       0.067367
@<TRIPOS>BOND
     1     1     2 ar  
     2     1     6 ar  
     3     1    13 1   
     4     2     3 ar  
     5     2    49 1   
     6     3     4 ar  
     7     3     7 1   
     8     4     5 ar  
     9     4     9 1   
    10     5     6 ar  
    11     5    50 1   
    12     6    11 1   
    13     7     8 2   
    14     7    51 1   
    15     8     9 1   
    16     8    52 1   
    17     9    10 1   
    18     9    14 1   
    19    10    53 1   
    20    11    12 1   
    21    11    23 1   
    22    11    54 1   
    23    12    13 1   
    24    12    20 1   
    25    12    55 1   
    26    13    37 1   
    27    13    56 1   
    28    14    15 1   
    29    14    19 1   
    30    14    57 1   
    31    15    16 1   
    32    16    17 2   
    33    16    18 1   
    34    18    19 1   
    35    19    58 1   
    36    19    59 1   
    37    20    21 1   
    38    21    22 2   
    39    21    23 1   
    40    23    24 1   
    41    23    29 1   
    42    24    25 2   
    43    24    26 1   
    44    26    27 2   
    45    26    60 1   
    46    27    28 1   
    47    27    61 1   
    48    28    29 ar  
    49    28    34 ar  
    50    29    30 ar  
    51    30    31 ar  
    52    30    62 1   
    53    31    32 1   
    54    31    33 ar  
    55    32    36 1   
    56    33    34 ar  
    57    33    63 1   
    58    34    35 1   
    59    35    64 1   
    60    35    65 1   
    61    35    66 1   
    62    36    67 1   
    63    36    68 1   
    64    36    69 1   
    65    37    38 1   
    66    38    39 1   
    67    38    48 1   
    68    38    70 1   
    69    39    40 1   
    70    39    42 1   
    71    39    71 1   
    72    40    41 1   
    73    40    72 1   
    74    40    73 1   
    75    41    74 1   
    76    41    75 1   
    77    41    76 1   
    78    42    43 1   
    79    42    44 1   
    80    42    77 1   
    81    43    78 1   
    82    44    45 1   
    83    44    46 1   
    84    44    79 1   
    85    45    80 1   
    86    46    47 1   
    87    46    48 1   
    88    46    81 1   
    89    47    82 1   
    90    47    83 1   
    91    47    84 1   
@<TRIPOS>SUBSTRUCTURE
     1 NCS         1 TEMP              0 ****  ****    0 ROOT
