@<TRIPOS>MOLECULE
NCS
   84    91     1     0     0
SMALL
No Charge or Current Charge


@<TRIPOS>ATOM
      1 C1           4.0030    -4.3360    -9.6760 ca         1 NCS      -0.100300
      2 C2           5.2180    -4.3180    -8.9650 ca         1 NCS      -0.064000
      3 C3           6.2040    -3.4290    -9.4150 ca         1 NCS      -0.054800
      4 C4           6.0120    -2.5920   -10.5010 ca         1 NCS      -0.141300
      5 C5           4.7960    -2.6090   -11.2080 ca         1 NCS      -0.043000
      6 C6           3.8020    -3.5110   -10.7770 ca         1 NCS      -0.082300
      7 C7           7.5470    -3.1790    -8.8980 ce         1 NCS      -0.172200
      8 C8           8.1850    -2.2250    -9.6180 c2         1 NCS      -0.214200
      9 C9           7.2570    -1.7510   -10.7590 c5         1 NCS       0.242500
     10 O9           7.8190    -2.0990   -12.0140 oh         1 NCS      -0.618000
     11 C10          2.4450    -3.7130   -11.4150 c5         1 NCS      -0.027400
     12 C11          1.7340    -4.7020   -10.4180 c5         1 NCS       0.147300
     13 C12          2.8320    -5.2400    -9.4030 c5         1 NCS       0.209600
     14 C13          6.8620    -0.2160   -10.6520 c5         1 NCS       0.158300
     15 O14          8.0690     0.5760   -10.6930 os         1 NCS      -0.407100
     16 C15          8.3360     1.0660    -9.4490 c          1 NCS       0.772200
     17 O15          9.3390     1.7000    -9.1660 o          1 NCS      -0.459000
     18 O16          7.3520     0.7590    -8.5560 os         1 NCS      -0.429100
     19 C17          6.2790     0.0860    -9.2410 c5         1 NCS       0.131600
     20 O18          1.2440    -5.8250   -11.1910 os         1 NCS      -0.414100
     21 C19          1.5450    -5.7140   -12.5240 c          1 NCS       0.676100
     22 O19          1.2860    -6.6010   -13.3240 o          1 NCS      -0.433000
     23 C20          2.5120    -4.5570   -12.7440 c5         1 NCS      -0.210700
     24 C21          1.8080    -3.7430   -13.8590 c          1 NCS       0.592300
     25 O21          0.6010    -3.5940   -13.9890 o          1 NCS      -0.530100
     26 C22          2.7740    -3.0390   -14.7400 ce         1 NCS      -0.328200
     27 C23          4.1030    -3.2990   -14.7740 cf         1 NCS      -0.043200
     28 C24          4.7550    -4.3520   -13.9880 ca         1 NCS      -0.127800
     29 C25          3.9590    -5.0330   -13.0410 ca         1 NCS       0.003700
     30 C26          4.5220    -6.1170   -12.3330 ca         1 NCS      -0.189000
     31 C27          5.8690    -6.4780   -12.5170 ca         1 NCS       0.163100
     32 O27          6.4660    -7.5050   -11.8130 os         1 NCS      -0.350100
     33 C28          6.6540    -5.7730   -13.4350 ca         1 NCS      -0.137000
     34 C29          6.1110    -4.7150   -14.1830 ca         1 NCS       0.001700
     35 C30          7.0010    -3.9940   -15.1910 c3         1 NCS      -0.059800
     36 C31          5.7810    -8.2220   -10.7700 c3         1 NCS       0.141900
     37 O1           2.3630    -5.0500    -8.0460 os         1 NCS      -0.532000
     38 C14          1.3240    -5.9420    -7.5940 c6         1 NCS       0.378300
     39 C16          0.7890    -5.4700    -6.2060 c6         1 NCS       0.080300
     40 N2           0.3850    -3.9570    -6.2480 ny         1 NCS      -0.820000
     41 C2M         -0.8820    -3.5640    -7.0230 c3         1 NCS       0.086900
     42 C18          1.8810    -5.6340    -5.1110 c6         1 NCS       0.104300
     43 O3           1.3230    -5.2880    -3.8270 oh         1 NCS      -0.687000
     44 C32          2.4120    -7.0960    -5.0960 c6         1 NCS       0.127300
     45 O4           1.3540    -7.9620    -4.6370 oh         1 NCS      -0.690000
     46 C33          2.9070    -7.4570    -6.5370 c6         1 NCS       0.173300
     47 C5M          3.4020    -8.9190    -6.6660 c3         1 NCS      -0.086100
     48 O5           1.8470    -7.2850    -7.5060 os         1 NCS      -0.430000
     49 H2           5.3860    -4.9690    -8.1110 ha         1 NCS       0.128000
     50 H5           4.6360    -1.9700   -12.0740 ha         1 NCS       0.144000
     51 H7           7.9400    -3.7170    -8.0320 ha         1 NCS       0.211000
     52 H8           9.1990    -1.8670    -9.4310 ha         1 NCS       0.231000
     53 HO9          7.8710    -3.0770   -12.0080 ho         1 NCS       0.468000
     54 H10          1.8840    -2.7750   -11.5140 hc         1 NCS       0.084700
     55 H11          0.8970    -4.2160    -9.8990 h1         1 NCS       0.067700
     56 H12          3.0930    -6.2930    -9.5710 h1         1 NCS       0.107700
     57 H13          6.1830     0.0850   -11.4600 h1         1 NCS       0.100700
     58 H171         5.4230     0.7700    -9.3120 h1         1 NCS       0.074700
     59 H172         5.9660    -0.7940    -8.6670 h1         1 NCS       0.074700
     60 H22          2.3510    -2.2920   -15.4080 ha         1 NCS       0.214000
     61 H23          4.7220    -2.7270   -15.4680 ha         1 NCS       0.194000
     62 H26          3.9090    -6.6600   -11.6260 ha         1 NCS       0.126000
     63 H28          7.6930    -6.0620   -13.5690 ha         1 NCS       0.146000
     64 H301         8.0200    -4.3980   -15.1990 hc         1 NCS       0.056700
     65 H302         6.6060    -4.0920   -16.2090 hc         1 NCS       0.056700
     66 H303         7.0790    -2.9260   -14.9560 hc         1 NCS       0.056700
     67 H311         6.4440    -8.9760   -10.3280 h1         1 NCS       0.052033
     68 H312         5.4630    -7.5400    -9.9710 h1         1 NCS       0.052033
     69 H313         4.8970    -8.7390   -11.1650 h1         1 NCS       0.052033
     70 H1           0.4870    -5.9280    -8.3090 h2         1 NCS       0.101700
     71 H6          -0.1030    -6.0450    -5.9360 hx         1 NCS       0.139700
     72 HN21         0.3100    -3.6450    -5.2530 hn         1 NCS       0.517000
     73 HN22         1.2080    -3.4250    -6.6070 hn         1 NCS       0.517000
     74 HM21        -0.7730    -3.8370    -8.0770 hx         1 NCS       0.103033
     75 HM22        -1.0470    -2.4850    -6.9480 hx         1 NCS       0.103033
     76 HM23        -1.7470    -4.0870    -6.6060 hx         1 NCS       0.103033
     77 H3           2.7220    -4.9650    -5.3560 h1         1 NCS       0.071700
     78 HO3          2.0730    -5.0770    -3.2210 ho         1 NCS       0.487000
     79 H4           3.2720    -7.1510    -4.4110 h1         1 NCS       0.070700
     80 HO4          0.8740    -7.4300    -3.9580 ho         1 NCS       0.522000
     81 H9           3.7460    -6.7970    -6.8040 h1         1 NCS       0.053700
     82 HM51         3.7770    -9.1160    -7.6770 hc         1 NCS       0.067367
     83 HM52         2.5970    -9.6340    -6.4620 hc         1 NCS       0.067367
     84 HM53         4.2190    -9.1210    -5.9640 hc         1 NCS       0.067367
@<TRIPOS>BOND
     1     1     2 ar  
     2     1     6 ar  
     3     1    13 1   
     4     2     3 ar  
     5     2    49 1   
     6     3     4 ar  
     7     3     7 1   
     8     4     5 ar  
     9     4     9 1   
    10     5     6 ar  
    11     5    50 1   
    12     6    11 1   
    13     7     8 2   
    14     7    51 1   
    15     8     9 1   
    16     8    52 1   
    17     9    10 1   
    18     9    14 1   
    19    10    53 1   
    20    11    12 1   
    21    11    23 1   
    22    11    54 1   
    23    12    13 1   
    24    12    20 1   
    25    12    55 1   
    26    13    37 1   
    27    13    56 1   
    28    14    15 1   
    29    14    19 1   
    30    14    57 1   
    31    15    16 1   
    32    16    17 2   
    33    16    18 1   
    34    18    19 1   
    35    19    58 1   
    36    19    59 1   
    37    20    21 1   
    38    21    22 2   
    39    21    23 1   
    40    23    24 1   
    41    23    29 1   
    42    24    25 2   
    43    24    26 1   
    44    26    27 2   
    45    26    60 1   
    46    27    28 1   
    47    27    61 1   
    48    28    29 ar  
    49    28    34 ar  
    50    29    30 ar  
    51    30    31 ar  
    52    30    62 1   
    53    31    32 1   
    54    31    33 ar  
    55    32    36 1   
    56    33    34 ar  
    57    33    63 1   
    58    34    35 1   
    59    35    64 1   
    60    35    65 1   
    61    35    66 1   
    62    36    67 1   
    63    36    68 1   
    64    36    69 1   
    65    37    38 1   
    66    38    39 1   
    67    38    48 1   
    68    38    70 1   
    69    39    40 1   
    70    39    42 1   
    71    39    71 1   
    72    40    41 1   
    73    40    72 1   
    74    40    73 1   
    75    41    74 1   
    76    41    75 1   
    77    41    76 1   
    78    42    43 1   
    79    42    44 1   
    80    42    77 1   
    81    43    78 1   
    82    44    45 1   
    83    44    46 1   
    84    44    79 1   
    85    45    80 1   
    86    46    47 1   
    87    46    48 1   
    88    46    81 1   
    89    47    82 1   
    90    47    83 1   
    91    47    84 1   
@<TRIPOS>SUBSTRUCTURE
     1 NCS         1 TEMP              0 ****  ****    0 ROOT
