@<TRIPOS>MOLECULE
NCT
   26    27     1     0     0
SMALL
bcc


@<TRIPOS>ATOM
      1 N1          -0.2930     1.2990    -2.4220 nb         1 NCT      -0.670000
      2 C1          -0.2550     0.9970    -1.1310 ca         1 NCT       0.421200
      3 C2           0.0600    -0.2670    -0.6350 ca         1 NCT      -0.196600
      4 C3           0.3530    -1.2570    -1.5630 ca         1 NCT      -0.091000
      5 C4           0.3100    -0.9570    -2.9170 ca         1 NCT      -0.250300
      6 C5          -0.0190     0.3350    -3.2960 ca         1 NCT       0.399200
      7 N2           0.5510     0.5380     1.6440 n3         1 NCT      -0.715600
      8 C6           0.0350    -0.5540     0.8390 c5         1 NCT       0.219800
      9 C7          -1.3840    -0.7460     1.3930 c5         1 NCT      -0.074400
     10 C8          -1.2800    -0.3120     2.8670 c5         1 NCT      -0.080400
     11 C9           0.1460     0.2280     3.0040 c5         1 NCT       0.159800
     12 C10          1.9700     0.7570     1.5080 c3         1 NCT       0.153100
     13 HC1         -0.4750     1.8000    -0.4350 h4         1 NCT       0.035100
     14 HC3          0.6170    -2.2540    -1.2290 ha         1 NCT       0.133000
     15 HC4          0.5320    -1.7060    -3.6640 ha         1 NCT       0.140000
     16 HC5         -0.0600     0.6040    -4.3450 h4         1 NCT       0.017100
     17 HC6          0.6140    -1.4800     1.0160 h1         1 NCT       0.029700
     18 HC71        -1.7200    -1.7740     1.2680 hc         1 NCT       0.052200
     19 HC72        -2.0850    -0.1080     0.8520 hc         1 NCT       0.052200
     20 HC81        -1.4530    -1.1390     3.5550 hc         1 NCT       0.047700
     21 HC82        -2.0190     0.4560     3.0960 hc         1 NCT       0.047700
     22 HC91         0.8000    -0.5420     3.4460 h1         1 NCT       0.036700
     23 HC92         0.2140     1.1120     3.6410 h1         1 NCT       0.036700
     24 H101         2.5680    -0.1200     1.8030 h1         1 NCT       0.033033
     25 H102         2.2240     1.0060     0.4780 h1         1 NCT       0.033033
     26 H103         2.2800     1.5950     2.1340 h1         1 NCT       0.033033
@<TRIPOS>BOND
     1     1     2 ar  
     2     1     6 ar  
     3     2     3 ar  
     4     2    13 1   
     5     3     4 ar  
     6     3     8 1   
     7     4     5 ar  
     8     4    14 1   
     9     5     6 ar  
    10     5    15 1   
    11     6    16 1   
    12     7     8 1   
    13     7    11 1   
    14     7    12 1   
    15     8     9 1   
    16     8    17 1   
    17     9    10 1   
    18     9    18 1   
    19     9    19 1   
    20    10    11 1   
    21    10    20 1   
    22    10    21 1   
    23    11    22 1   
    24    11    23 1   
    25    12    24 1   
    26    12    25 1   
    27    12    26 1   
@<TRIPOS>SUBSTRUCTURE
     1 NCT         1 TEMP              0 ****  ****    0 ROOT
