@<TRIPOS>MOLECULE
NCT
   26    27     1     0     0
SMALL
No Charge or Current Charge


@<TRIPOS>ATOM
      1 N1          -0.5370     1.2830    -2.3770 nb         1 NCT      -0.670000
      2 C1          -0.4540     0.9370    -1.0680 ca         1 NCT       0.355900
      3 C2           0.0310    -0.3110    -0.6220 ca         1 NCT      -0.131300
      4 C3           0.4590    -1.2410    -1.5880 ca         1 NCT      -0.073000
      5 C4           0.3770    -0.8860    -2.9440 ca         1 NCT      -0.167000
      6 C5          -0.1250     0.3790    -3.2940 ca         1 NCT       0.333900
      7 N2           0.6280     0.4720     1.6730 n3         1 NCT      -0.715600
      8 C6           0.1020    -0.6470     0.8640 c5         1 NCT       0.219800
      9 C7          -1.3590    -0.8120     1.3960 c5         1 NCT      -0.074400
     10 C8          -1.3380    -0.0830     2.7760 c5         1 NCT      -0.080400
     11 C9           0.1710     0.1410     3.0360 c5         1 NCT       0.159800
     12 C10          2.0770     0.7270     1.5360 c3         1 NCT       0.153100
     13 HC1         -0.7960     1.6870    -0.3550 h4         1 NCT       0.035100
     14 HC3          0.8440    -2.2160    -1.2950 ha         1 NCT       0.115000
     15 HC4          0.6960    -1.5770    -3.7190 ha         1 NCT       0.122000
     16 HC5         -0.1990     0.6770    -4.3390 h4         1 NCT       0.017100
     17 HC6          0.6830    -1.5630     1.0390 h1         1 NCT       0.029700
     18 HC71        -1.6140    -1.8720     1.4990 hc         1 NCT       0.052200
     19 HC72        -2.1130    -0.3690     0.7350 hc         1 NCT       0.052200
     20 HC81        -1.8130    -0.6680     3.5710 hc         1 NCT       0.047700
     21 HC82        -1.8660     0.8760     2.7180 hc         1 NCT       0.047700
     22 HC91         0.6560    -0.7700     3.4160 h1         1 NCT       0.036700
     23 HC92         0.3520     0.9550     3.7510 h1         1 NCT       0.036700
     24 H101         2.6600    -0.1560     1.8300 h1         1 NCT       0.033033
     25 H102         2.3300     0.9770     0.4970 h1         1 NCT       0.033033
     26 H103         2.3810     1.5690     2.1710 h1         1 NCT       0.033033
@<TRIPOS>BOND
     1     1     2 ar  
     2     1     6 ar  
     3     2     3 ar  
     4     2    13 1   
     5     3     4 ar  
     6     3     8 1   
     7     4     5 ar  
     8     4    14 1   
     9     5     6 ar  
    10     5    15 1   
    11     6    16 1   
    12     7     8 1   
    13     7    11 1   
    14     7    12 1   
    15     8     9 1   
    16     8    17 1   
    17     9    10 1   
    18     9    18 1   
    19     9    19 1   
    20    10    11 1   
    21    10    20 1   
    22    10    21 1   
    23    11    22 1   
    24    11    23 1   
    25    12    24 1   
    26    12    25 1   
    27    12    26 1   
@<TRIPOS>SUBSTRUCTURE
     1 NCT         1 TEMP              0 ****  ****    0 ROOT
