@<TRIPOS>MOLECULE
NCV
   32    32     1     0     0
SMALL
No Charge or Current Charge


@<TRIPOS>ATOM
      1 N1          46.0740    83.6410    54.8660 n          1 NCV      -0.298000
      2 C6          47.0770    83.6100    55.9690 c3         1 NCV       0.084300
      3 C5          46.1340    82.7320    53.7850 cc         1 NCV       0.128400
      4 C11         47.2520    81.6890    53.7250 c3         1 NCV      -0.039200
      5 C12         48.3550    81.9560    52.6490 c3         1 NCV      -0.103700
      6 C14         49.2590    83.1810    52.9520 c3         1 NCV       0.160100
      7 O4          48.5280    84.4040    52.8000 oh         1 NCV      -0.655000
      8 C13         49.2020    80.6840    52.3830 c3         1 NCV       0.160100
      9 O3          49.9110    80.2760    53.5610 oh         1 NCV      -0.655000
     10 C3          45.1520    82.7990    52.8000 cd         1 NCV      -0.275400
     11 C4          45.0500    81.8920    51.5790 c3         1 NCV      -0.020900
     12 C2          44.0880    83.8300    52.8650 c          1 NCV       0.590200
     13 O2          43.2030    83.9750    52.0360 o          1 NCV      -0.539000
     14 N2          44.1580    84.6350    53.9450 ns         1 NCV      -0.460500
     15 C1          45.0580    84.6170    54.9500 c          1 NCV       0.618000
     16 O1          44.9570    85.4210    55.8630 o          1 NCV      -0.570000
     17 H6          48.0910    83.6330    55.5540 h1         1 NCV       0.056033
     18 H6A         46.9810    84.4680    56.6440 h1         1 NCV       0.056033
     19 H6B         46.9470    82.6930    56.5570 h1         1 NCV       0.056033
     20 H11         47.7360    81.5370    54.6940 hc         1 NCV       0.067200
     21 H11A        46.7950    80.7130    53.5260 hc         1 NCV       0.067200
     22 H12         47.8500    82.1710    51.7010 hc         1 NCV       0.079700
     23 H14         49.6690    83.0980    53.9670 h1         1 NCV       0.033450
     24 H14A        50.1070    83.1770    52.2530 h1         1 NCV       0.033450
     25 HO4         49.1640    85.1390    52.9420 ho         1 NCV       0.443500
     26 H13         48.5340    79.8780    52.0510 h1         1 NCV       0.033450
     27 H13A        49.9060    80.8790    51.5610 h1         1 NCV       0.033450
     28 HO3         50.7260    80.8220    53.6160 ho         1 NCV       0.443500
     29 H4          45.3410    82.4320    50.6700 hc         1 NCV       0.044033
     30 H4A         45.6800    80.9990    51.6400 hc         1 NCV       0.044033
     31 H4B         44.0240    81.5310    51.4350 hc         1 NCV       0.044033
     32 HN2         43.4420    85.3390    54.0140 hn         1 NCV       0.343500
@<TRIPOS>BOND
     1     1     2 1   
     2     1     3 1   
     3     1    15 1   
     4     2    17 1   
     5     2    18 1   
     6     2    19 1   
     7     3     4 1   
     8     3    10 2   
     9     4     5 1   
    10     4    20 1   
    11     4    21 1   
    12     5     6 1   
    13     5     8 1   
    14     5    22 1   
    15     6     7 1   
    16     6    23 1   
    17     6    24 1   
    18     7    25 1   
    19     8     9 1   
    20     8    26 1   
    21     8    27 1   
    22     9    28 1   
    23    10    11 1   
    24    10    12 1   
    25    11    29 1   
    26    11    30 1   
    27    11    31 1   
    28    12    13 2   
    29    12    14 1   
    30    14    15 1   
    31    14    32 1   
    32    15    16 2   
@<TRIPOS>SUBSTRUCTURE
     1 NCV         1 TEMP              0 ****  ****    0 ROOT
