@<TRIPOS>MOLECULE
NCV
   32    32     1     0     0
SMALL
abcg2


@<TRIPOS>ATOM
      1 N1          46.1130    83.6440    54.8270 n          1 NCV      -0.298000
      2 C6          47.1010    83.5810    55.8970 c3         1 NCV       0.084300
      3 C5          46.1450    82.7530    53.7690 cc         1 NCV       0.128400
      4 C11         47.2580    81.7430    53.7210 c3         1 NCV      -0.039200
      5 C12         48.3050    82.0120    52.6230 c3         1 NCV      -0.103700
      6 C14         49.2000    83.2000    52.9340 c3         1 NCV       0.160100
      7 O4          48.4190    84.3730    52.9680 oh         1 NCV      -0.655000
      8 C13         49.1290    80.7540    52.3550 c3         1 NCV       0.160100
      9 O3          49.7580    80.2120    53.4950 oh         1 NCV      -0.655000
     10 C3          45.1900    82.7690    52.8020 cd         1 NCV      -0.275400
     11 C4          45.1350    81.8160    51.6470 c3         1 NCV      -0.020900
     12 C2          44.1590    83.7780    52.8390 c          1 NCV       0.590200
     13 O2          43.2640    83.9040    52.0180 o          1 NCV      -0.539000
     14 N2          44.2430    84.6470    53.9060 ns         1 NCV      -0.460500
     15 C1          45.1660    84.6380    54.9130 c          1 NCV       0.618000
     16 O1          45.1290    85.4620    55.8080 o          1 NCV      -0.570000
     17 H6          48.1060    83.7200    55.5090 h1         1 NCV       0.056033
     18 H6A         46.8970    84.3740    56.6060 h1         1 NCV       0.056033
     19 H6B         47.0430    82.6310    56.4250 h1         1 NCV       0.056033
     20 H11         47.7620    81.6470    54.6790 hc         1 NCV       0.067200
     21 H11A        46.8060    80.7660    53.5340 hc         1 NCV       0.067200
     22 H12         47.7900    82.2310    51.6810 hc         1 NCV       0.079700
     23 H14         49.7140    83.0380    53.8910 h1         1 NCV       0.033450
     24 H14A        49.9790    83.2650    52.1610 h1         1 NCV       0.033450
     25 HO4         48.9680    85.0940    53.2910 ho         1 NCV       0.443500
     26 H13         48.4640    79.9760    51.9730 h1         1 NCV       0.033450
     27 H13A        49.8550    80.9660    51.5600 h1         1 NCV       0.033450
     28 HO3         50.4810    80.7880    53.7580 ho         1 NCV       0.443500
     29 H4          45.4680    82.2870    50.7190 hc         1 NCV       0.044033
     30 H4A         45.7480    80.9310    51.7990 hc         1 NCV       0.044033
     31 H4B         44.1130    81.4760    51.4800 hc         1 NCV       0.044033
     32 HN2         43.5430    85.3750    53.9650 hn         1 NCV       0.343500
@<TRIPOS>BOND
     1     1     2 1   
     2     1     3 1   
     3     1    15 1   
     4     2    17 1   
     5     2    18 1   
     6     2    19 1   
     7     3     4 1   
     8     3    10 2   
     9     4     5 1   
    10     4    20 1   
    11     4    21 1   
    12     5     6 1   
    13     5     8 1   
    14     5    22 1   
    15     6     7 1   
    16     6    23 1   
    17     6    24 1   
    18     7    25 1   
    19     8     9 1   
    20     8    26 1   
    21     8    27 1   
    22     9    28 1   
    23    10    11 1   
    24    10    12 1   
    25    11    29 1   
    26    11    30 1   
    27    11    31 1   
    28    12    13 2   
    29    12    14 1   
    30    14    15 1   
    31    14    32 1   
    32    15    16 2   
@<TRIPOS>SUBSTRUCTURE
     1 NCV         1 TEMP              0 ****  ****    0 ROOT
