@<TRIPOS>MOLECULE
NCW
   50    51     1     0     0
SMALL
abcg2


@<TRIPOS>ATOM
      1 S1           1.2610    -2.7370     0.5130 s          1 NCW      -0.657400
      2 C7           1.1790    -1.2560    -0.2850 cs         1 NCW       0.490400
      3 N1           2.2930    -0.6370    -0.7270 n          1 NCW      -0.396800
      4 C5           3.6560    -1.0170    -0.4100 c5         1 NCW       0.082700
      5 C4           4.0270    -0.3250     0.9020 c6         1 NCW       0.155300
      6 O4           5.3260    -0.7220     1.2560 oh         1 NCW      -0.711000
      7 C3           3.9200     1.1970     0.7510 c6         1 NCW       0.092300
      8 O3           3.9850     1.7660     2.0440 oh         1 NCW      -0.667000
      9 C2           2.6390     1.6210     0.0180 c6         1 NCW       0.107300
     10 O2           2.6970     2.9550    -0.4170 oh         1 NCW      -0.704000
     11 C6           4.3700    -0.4410    -1.6270 c5         1 NCW       0.143600
     12 O1           3.5750     0.6810    -2.0180 os         1 NCW      -0.438000
     13 C1           2.4320     0.7260    -1.2050 c5         1 NCW       0.321700
     14 N2           0.0160    -0.6400    -0.5160 ns         1 NCW      -0.442900
     15 C8          -1.2860    -1.1900    -0.1920 c3         1 NCW       0.100000
     16 C9          -2.3510    -0.1080    -0.2620 c3         1 NCW      -0.094400
     17 C10         -3.7380    -0.6700     0.0200 c3         1 NCW      -0.072400
     18 C11         -4.8320     0.3890    -0.0170 c3         1 NCW      -0.074400
     19 C12         -6.2240    -0.1890     0.2070 c3         1 NCW      -0.075400
     20 C13         -7.3270     0.8610     0.1800 c3         1 NCW      -0.075400
     21 C14         -8.7200     0.2730     0.3790 c3         1 NCW      -0.075400
     22 C15         -9.8170     1.3280     0.3540 c3         1 NCW      -0.088100
     23 H2           0.0040     0.1850    -1.0960 hn         1 NCW       0.305500
     24 H5           3.7590    -2.0970    -0.3290 h1         1 NCW       0.137700
     25 H1           1.5850     1.0640    -1.8080 h2         1 NCW       0.093700
     26 H4           3.2960    -0.6570     1.6550 h1         1 NCW       0.074700
     27 H6C1         5.3920    -0.1240    -1.4110 h1         1 NCW       0.070200
     28 H6C2         4.4000    -1.1690    -2.4410 h1         1 NCW       0.070200
     29 HA           5.5780    -0.2490     2.0570 ho         1 NCW       0.521000
     30 H3           4.7740     1.5380     0.1510 h1         1 NCW       0.064700
     31 HB           4.4880     2.5830     2.0050 ho         1 NCW       0.451000
     32 HC           1.7790     1.4630     0.6860 h1         1 NCW       0.053700
     33 HD           2.5910     3.5330     0.3440 ho         1 NCW       0.511000
     34 H8C1        -1.5320    -2.0100    -0.8740 h1         1 NCW       0.073200
     35 H8C2        -1.2450    -1.6150     0.8110 h1         1 NCW       0.073200
     36 H9C1        -2.1160     0.6810     0.4580 hc         1 NCW       0.043200
     37 H9C2        -2.3450     0.3570    -1.2540 hc         1 NCW       0.043200
     38 H101        -3.9660    -1.4520    -0.7130 hc         1 NCW       0.045200
     39 H102        -3.7410    -1.1610     0.9990 hc         1 NCW       0.045200
     40 H111        -4.6280     1.1520     0.7420 hc         1 NCW       0.038200
     41 H112        -4.8060     0.9070    -0.9830 hc         1 NCW       0.038200
     42 H121        -6.4250    -0.9470    -0.5580 hc         1 NCW       0.039200
     43 H122        -6.2470    -0.7160     1.1680 hc         1 NCW       0.039200
     44 H131        -7.1370     1.6100     0.9560 hc         1 NCW       0.037200
     45 H132        -7.2950     1.3990    -0.7740 hc         1 NCW       0.037200
     46 H141        -8.9090    -0.4730    -0.3980 hc         1 NCW       0.037700
     47 H142        -8.7510    -0.2670     1.3310 hc         1 NCW       0.037700
     48 H151        -9.6770     2.0620     1.1500 hc         1 NCW       0.031700
     49 H152        -9.8210     1.8690    -0.5950 hc         1 NCW       0.031700
     50 H153       -10.8050     0.8840     0.4830 hc         1 NCW       0.031700
@<TRIPOS>BOND
     1     1     2 2   
     2     2     3 1   
     3     2    14 1   
     4     3     4 1   
     5     3    13 1   
     6     4     5 1   
     7     4    11 1   
     8     4    24 1   
     9     5     6 1   
    10     5     7 1   
    11     5    26 1   
    12     6    29 1   
    13     7     8 1   
    14     7     9 1   
    15     7    30 1   
    16     8    31 1   
    17     9    10 1   
    18     9    13 1   
    19     9    32 1   
    20    10    33 1   
    21    11    12 1   
    22    11    27 1   
    23    11    28 1   
    24    12    13 1   
    25    13    25 1   
    26    14    15 1   
    27    14    23 1   
    28    15    16 1   
    29    15    34 1   
    30    15    35 1   
    31    16    17 1   
    32    16    36 1   
    33    16    37 1   
    34    17    18 1   
    35    17    38 1   
    36    17    39 1   
    37    18    19 1   
    38    18    40 1   
    39    18    41 1   
    40    19    20 1   
    41    19    42 1   
    42    19    43 1   
    43    20    21 1   
    44    20    44 1   
    45    20    45 1   
    46    21    22 1   
    47    21    46 1   
    48    21    47 1   
    49    22    48 1   
    50    22    49 1   
    51    22    50 1   
@<TRIPOS>SUBSTRUCTURE
     1 NCW         1 TEMP              0 ****  ****    0 ROOT
