@<TRIPOS>MOLECULE
NCW
   50    51     1     0     0
SMALL
No Charge or Current Charge


@<TRIPOS>ATOM
      1 S1           1.3120    -2.9460     0.2530 s          1 NCW      -0.657400
      2 C7           1.2280    -1.3590    -0.2650 cs         1 NCW       0.490400
      3 N1           2.3190    -0.5970    -0.6230 n          1 NCW      -0.396800
      4 C5           3.7260    -1.0190    -0.5220 c5         1 NCW       0.082700
      5 C4           4.3220    -0.4350     0.8000 c6         1 NCW       0.155300
      6 O4           5.6870    -0.8380     0.9980 oh         1 NCW      -0.711000
      7 C3           4.2250     1.1290     0.8000 c6         1 NCW       0.092300
      8 O3           4.5570     1.6690     2.0920 oh         1 NCW      -0.667000
      9 C2           2.8100     1.6120     0.3380 c6         1 NCW       0.107300
     10 O2           2.8110     3.0510     0.1750 oh         1 NCW      -0.704000
     11 C6           4.2480    -0.3170    -1.8150 c5         1 NCW       0.143600
     12 O1           3.4250     0.8790    -1.9640 os         1 NCW      -0.438000
     13 C1           2.3770     0.8290    -0.9650 c5         1 NCW       0.321700
     14 N2           0.0450    -0.6800    -0.3610 ns         1 NCW      -0.442900
     15 C8          -1.2770    -1.2160    -0.0370 c3         1 NCW       0.100000
     16 C9          -2.3810    -0.1600    -0.2330 c3         1 NCW      -0.094400
     17 C10         -3.7900    -0.6960     0.1030 c3         1 NCW      -0.072400
     18 C11         -4.9000     0.3600    -0.0940 c3         1 NCW      -0.074400
     19 C12         -6.3090    -0.1750     0.2420 c3         1 NCW      -0.075400
     20 C13         -7.4200     0.8800     0.0460 c3         1 NCW      -0.075400
     21 C14         -8.8290     0.3450     0.3810 c3         1 NCW      -0.075400
     22 C15         -9.9370     1.3980     0.1850 c3         1 NCW      -0.088100
     23 H2           0.0830     0.2720    -0.6970 hn         1 NCW       0.305500
     24 H5           3.8640    -2.1090    -0.5540 h1         1 NCW       0.137700
     25 H1           1.4190     1.1590    -1.3850 h2         1 NCW       0.093700
     26 H4           3.7050    -0.8120     1.6310 h1         1 NCW       0.074700
     27 H6C1         5.3120    -0.0490    -1.7610 h1         1 NCW       0.070200
     28 H6C2         4.0950    -0.9550    -2.6960 h1         1 NCW       0.070200
     29 HA           6.0250    -0.2520     1.7180 ho         1 NCW       0.521000
     30 H3           4.9510     1.5080     0.0640 h1         1 NCW       0.064700
     31 HB           4.2700     2.6110     2.0600 ho         1 NCW       0.451000
     32 HC           2.0930     1.3400     1.1280 h1         1 NCW       0.053700
     33 HD           1.8790     3.3420     0.0380 ho         1 NCW       0.511000
     34 H8C1        -1.4760    -2.0830    -0.6810 h1         1 NCW       0.073200
     35 H8C2        -1.2750    -1.5570     1.0080 h1         1 NCW       0.073200
     36 H9C1        -2.1650     0.7090     0.4010 hc         1 NCW       0.043200
     37 H9C2        -2.3660     0.1870    -1.2740 hc         1 NCW       0.043200
     38 H101        -4.0050    -1.5660    -0.5300 hc         1 NCW       0.045200
     39 H102        -3.8050    -1.0450     1.1430 hc         1 NCW       0.045200
     40 H111        -4.6850     1.2300     0.5390 hc         1 NCW       0.038200
     41 H112        -4.8860     0.7090    -1.1340 hc         1 NCW       0.038200
     42 H121        -6.5240    -1.0460    -0.3910 hc         1 NCW       0.039200
     43 H122        -6.3240    -0.5240     1.2820 hc         1 NCW       0.039200
     44 H131        -7.2050     1.7510     0.6790 hc         1 NCW       0.037200
     45 H132        -7.4050     1.2290    -0.9940 hc         1 NCW       0.037200
     46 H141        -9.0480    -0.5240    -0.2510 hc         1 NCW       0.037700
     47 H142        -8.8480    -0.0030     1.4210 hc         1 NCW       0.037700
     48 H151        -9.7650     2.2670     0.8320 hc         1 NCW       0.031700
     49 H152        -9.9670     1.7410    -0.8560 hc         1 NCW       0.031700
     50 H153       -10.9160     0.9730     0.4350 hc         1 NCW       0.031700
@<TRIPOS>BOND
     1     1     2 2   
     2     2     3 1   
     3     2    14 1   
     4     3     4 1   
     5     3    13 1   
     6     4     5 1   
     7     4    11 1   
     8     4    24 1   
     9     5     6 1   
    10     5     7 1   
    11     5    26 1   
    12     6    29 1   
    13     7     8 1   
    14     7     9 1   
    15     7    30 1   
    16     8    31 1   
    17     9    10 1   
    18     9    13 1   
    19     9    32 1   
    20    10    33 1   
    21    11    12 1   
    22    11    27 1   
    23    11    28 1   
    24    12    13 1   
    25    13    25 1   
    26    14    15 1   
    27    14    23 1   
    28    15    16 1   
    29    15    34 1   
    30    15    35 1   
    31    16    17 1   
    32    16    36 1   
    33    16    37 1   
    34    17    18 1   
    35    17    38 1   
    36    17    39 1   
    37    18    19 1   
    38    18    40 1   
    39    18    41 1   
    40    19    20 1   
    41    19    42 1   
    42    19    43 1   
    43    20    21 1   
    44    20    44 1   
    45    20    45 1   
    46    21    22 1   
    47    21    46 1   
    48    21    47 1   
    49    22    48 1   
    50    22    49 1   
    51    22    50 1   
@<TRIPOS>SUBSTRUCTURE
     1 NCW         1 TEMP              0 ****  ****    0 ROOT
