@<TRIPOS>MOLECULE
NCZ
   42    44     1     0     0
SMALL
bcc


@<TRIPOS>ATOM
      1 C1           1.2370     0.7770     0.2530 ca         1 NCZ      -0.182000
      2 C6           1.4020    -0.6220     0.1970 ca         1 NCZ       0.079000
      3 C5           2.6700    -1.1500    -0.1750 ca         1 NCZ      -0.108000
      4 C7           2.8400    -2.5520    -0.2030 ca         1 NCZ      -0.043000
      5 C8           1.8300    -3.4050     0.1310 ca         1 NCZ      -0.234000
      6 C9           0.5730    -2.8900     0.5130 ca         1 NCZ       0.196100
      7 C10          0.3540    -1.5290     0.5330 ca         1 NCZ      -0.179600
      8 C11         -0.9920    -1.0420     0.9340 c          1 NCZ       0.680700
      9 O3          -1.5040    -1.2560     2.0020 o          1 NCZ      -0.498000
     10 O4          -1.5580    -0.3430    -0.0460 os         1 NCZ      -0.418900
     11 C12         -2.7760     0.3560     0.1820 c5         1 NCZ       0.137100
     12 C13         -2.6700     1.7970    -0.3120 c5         1 NCZ       0.163300
     13 C14         -4.1110     2.1020    -0.6270 c2         1 NCZ      -0.192700
     14 C15         -4.8180     0.9870    -0.7720 c2         1 NCZ      -0.192700
     15 C16         -3.9650    -0.2400    -0.5670 c5         1 NCZ       0.163300
     16 O6          -4.5560    -1.2610     0.1950 oh         1 NCZ      -0.577300
     17 O5          -2.0800     2.6000     0.6810 oh         1 NCZ      -0.577300
     18 O2          -0.4430    -3.7070     0.8280 oh         1 NCZ      -0.475100
     19 C4           3.7340    -0.2660    -0.5000 ca         1 NCZ      -0.011300
     20 C3           3.5330     1.0900    -0.4420 ca         1 NCZ      -0.212000
     21 C2           2.2800     1.6170    -0.0600 ca         1 NCZ       0.158100
     22 O1           2.0330     2.9370     0.0240 os         1 NCZ      -0.319900
     23 C17          3.0690     3.8540    -0.2730 c3         1 NCZ       0.126700
     24 C18          5.0770    -0.8000    -0.9010 c3         1 NCZ      -0.054800
     25 H1           0.2980     1.2250     0.5510 ha         1 NCZ       0.163000
     26 H7           3.7940    -2.9700    -0.4950 ha         1 NCZ       0.132000
     27 H8           1.9860    -4.4760     0.1010 ha         1 NCZ       0.135000
     28 H12         -3.0180     0.3750     1.2480 h1         1 NCZ       0.107700
     29 H13         -2.0750     1.8280    -1.2350 h1         1 NCZ       0.054700
     30 H14         -4.4780     3.1110    -0.7650 ha         1 NCZ       0.142500
     31 H15         -5.8630     0.9290    -1.0500 ha         1 NCZ       0.142500
     32 H16         -3.6320    -0.6260    -1.5410 h1         1 NCZ       0.054700
     33 H6          -5.1430    -1.7670    -0.3750 ho         1 NCZ       0.407500
     34 H5          -1.7230     3.3900     0.2670 ho         1 NCZ       0.407500
     35 H2          -0.1750    -4.6290     0.7420 ho         1 NCZ       0.430000
     36 H3           4.3570     1.7480    -0.6860 ha         1 NCZ       0.134000
     37 H171         3.9250     3.7370     0.3960 h1         1 NCZ       0.040700
     38 H172         3.4120     3.7670    -1.3060 h1         1 NCZ       0.040700
     39 H173         2.6480     4.8460    -0.1290 h1         1 NCZ       0.040700
     40 H181         5.5140    -1.4240    -0.1190 hc         1 NCZ       0.045033
     41 H182         5.0150    -1.4120    -1.8020 hc         1 NCZ       0.045033
     42 H183         5.7730     0.0130    -1.1020 hc         1 NCZ       0.045033
@<TRIPOS>BOND
     1     1     2 ar  
     2     1    21 ar  
     3     1    25 1   
     4     2     3 ar  
     5     2     7 ar  
     6     3     4 ar  
     7     3    19 ar  
     8     4     5 ar  
     9     4    26 1   
    10     5     6 ar  
    11     5    27 1   
    12     6     7 ar  
    13     6    18 1   
    14     7     8 1   
    15     8     9 2   
    16     8    10 1   
    17    10    11 1   
    18    11    12 1   
    19    11    15 1   
    20    11    28 1   
    21    12    13 1   
    22    12    17 1   
    23    12    29 1   
    24    13    14 2   
    25    13    30 1   
    26    14    15 1   
    27    14    31 1   
    28    15    16 1   
    29    15    32 1   
    30    16    33 1   
    31    17    34 1   
    32    18    35 1   
    33    19    20 ar  
    34    19    24 1   
    35    20    21 ar  
    36    20    36 1   
    37    21    22 1   
    38    22    23 1   
    39    23    37 1   
    40    23    38 1   
    41    23    39 1   
    42    24    40 1   
    43    24    41 1   
    44    24    42 1   
@<TRIPOS>SUBSTRUCTURE
     1 NCZ         1 TEMP              0 ****  ****    0 ROOT
