@<TRIPOS>MOLECULE
NCZ
   42    44     1     0     0
SMALL
No Charge or Current Charge


@<TRIPOS>ATOM
      1 C1           1.4990     0.8460     0.4190 ca         1 NCZ      -0.164000
      2 C6           1.5240    -0.5440     0.1780 ca         1 NCZ       0.079000
      3 C5           2.7340    -1.1510    -0.2490 ca         1 NCZ      -0.108000
      4 C7           2.7610    -2.5460    -0.4770 ca         1 NCZ      -0.025000
      5 C8           1.6090    -3.3210    -0.2820 ca         1 NCZ      -0.216000
      6 C9           0.4170    -2.7210     0.1380 ca         1 NCZ       0.196100
      7 C10          0.3640    -1.3370     0.3670 ca         1 NCZ      -0.179600
      8 C11         -0.9310    -0.7370     0.8070 c          1 NCZ       0.631700
      9 O3          -1.3000    -0.7690     1.9740 o          1 NCZ      -0.449000
     10 O4          -1.5000     0.0360    -0.1780 os         1 NCZ      -0.442100
     11 C12         -2.7820     0.6420     0.1650 c5         1 NCZ       0.160300
     12 C13         -3.1290     1.7280    -0.9150 c5         1 NCZ       0.186500
     13 C14         -4.6370     1.6520    -0.9750 c2         1 NCZ      -0.242700
     14 C15         -5.0870     0.4900    -0.4920 c2         1 NCZ      -0.242700
     15 C16         -3.9540    -0.3950    -0.0260 c5         1 NCZ       0.186500
     16 O6          -4.3200    -1.0730     1.1740 oh         1 NCZ      -0.639500
     17 O5          -2.7050     3.0380    -0.5450 oh         1 NCZ      -0.639500
     18 O2          -0.6930    -3.4930     0.3080 oh         1 NCZ      -0.514100
     19 C4           3.8960    -0.3580    -0.4390 ca         1 NCZ      -0.011300
     20 C3           3.8390     1.0270    -0.1960 ca         1 NCZ      -0.194000
     21 C2           2.6430     1.6300     0.2340 ca         1 NCZ       0.158100
     22 O1           2.5410     2.9830     0.4890 os         1 NCZ      -0.343100
     23 C17          3.6540     3.8810     0.3320 c3         1 NCZ       0.149900
     24 C18          5.2220    -0.9610    -0.9000 c3         1 NCZ      -0.054800
     25 H1           0.5940     1.3420     0.7550 ha         1 NCZ       0.145000
     26 H7           3.6670    -3.0480    -0.8050 ha         1 NCZ       0.114000
     27 H8           1.6520    -4.3920    -0.4640 ha         1 NCZ       0.117000
     28 H12         -2.7700     1.0850     1.1710 h1         1 NCZ       0.107700
     29 H13         -2.6990     1.4490    -1.8880 h1         1 NCZ       0.054700
     30 H14         -5.2840     2.4370    -1.3700 ha         1 NCZ       0.192500
     31 H15         -6.1450     0.2210    -0.4470 ha         1 NCZ       0.192500
     32 H16         -3.6950    -1.1210    -0.8100 h1         1 NCZ       0.054700
     33 H6          -5.0690    -1.6650     0.9460 ho         1 NCZ       0.446500
     34 H5          -2.9790     3.6380    -1.2720 ho         1 NCZ       0.446500
     35 H2          -0.4560    -4.4220     0.1030 ho         1 NCZ       0.469000
     36 H3           4.7350     1.6220    -0.3440 ha         1 NCZ       0.116000
     37 H171         4.4820     3.5960     0.9930 h1         1 NCZ       0.040700
     38 H172         4.0130     3.8800    -0.7050 h1         1 NCZ       0.040700
     39 H173         3.3540     4.9050     0.5860 h1         1 NCZ       0.040700
     40 H181         5.5840    -1.7110    -0.1880 hc         1 NCZ       0.045033
     41 H182         5.1170    -1.4420    -1.8800 hc         1 NCZ       0.045033
     42 H183         6.0070    -0.2010    -0.9970 hc         1 NCZ       0.045033
@<TRIPOS>BOND
     1     1     2 ar  
     2     1    21 ar  
     3     1    25 1   
     4     2     3 ar  
     5     2     7 ar  
     6     3     4 ar  
     7     3    19 ar  
     8     4     5 ar  
     9     4    26 1   
    10     5     6 ar  
    11     5    27 1   
    12     6     7 ar  
    13     6    18 1   
    14     7     8 1   
    15     8     9 2   
    16     8    10 1   
    17    10    11 1   
    18    11    12 1   
    19    11    15 1   
    20    11    28 1   
    21    12    13 1   
    22    12    17 1   
    23    12    29 1   
    24    13    14 2   
    25    13    30 1   
    26    14    15 1   
    27    14    31 1   
    28    15    16 1   
    29    15    32 1   
    30    16    33 1   
    31    17    34 1   
    32    18    35 1   
    33    19    20 ar  
    34    19    24 1   
    35    20    21 ar  
    36    20    36 1   
    37    21    22 1   
    38    22    23 1   
    39    23    37 1   
    40    23    38 1   
    41    23    39 1   
    42    24    40 1   
    43    24    41 1   
    44    24    42 1   
@<TRIPOS>SUBSTRUCTURE
     1 NCZ         1 TEMP              0 ****  ****    0 ROOT
