@<TRIPOS>MOLECULE
ND2
   63    68     1     0     0
SMALL
No Charge or Current Charge


@<TRIPOS>ATOM
      1 C1         -48.0360    -2.6080   -58.5850 c3         1 ND2       0.151100
      2 C3         -49.7140    -4.3600   -58.1490 c6         1 ND2       0.164800
      3 C7         -48.2300    -3.5940   -56.3340 c6         1 ND2       0.164800
      4 C9         -50.9720    -7.1090   -54.2850 cc         1 ND2      -0.226000
      5 C10        -52.0120    -7.1440   -53.4120 cd         1 ND2       0.188000
      6 C12        -53.3060    -8.4840   -51.6710 ca         1 ND2       0.429900
      7 C14        -54.9160    -7.7210   -50.2360 ca         1 ND2       0.440300
      8 C16        -54.9190    -5.7540   -49.0110 cx         1 ND2       0.152000
      9 C19        -55.4710    -4.3510   -48.9490 cx         1 ND2      -0.129400
     10 C20        -55.1000    -9.0440   -49.7260 ca         1 ND2       0.093000
     11 C22        -56.1290   -10.6070   -48.3010 ca         1 ND2       0.430500
     12 C24        -54.3940   -11.3670   -49.8210 ca         1 ND2      -0.082000
     13 N26        -53.3730    -9.7560   -51.2570 nb         1 ND2      -0.279000
     14 C27        -57.1250   -10.8300   -47.2540 cc         1 ND2      -0.269500
     15 N29        -58.7630   -10.4430   -45.7230 nd         1 ND2      -0.530800
     16 C32        -57.3860   -12.0480   -46.6920 cd         1 ND2      -0.143000
     17 C33        -52.6320    -5.8660   -53.4490 cd         1 ND2       0.253900
     18 N2         -48.9410    -3.2180   -57.5870 n3         1 ND2      -0.716600
     19 C4         -50.7410    -4.9030   -57.1290 c6         1 ND2      -0.087900
     20 C5         -50.0360    -5.3060   -55.8100 c6         1 ND2       0.110300
     21 C6         -49.2130    -4.1140   -55.2620 c6         1 ND2      -0.087900
     22 N8         -51.0040    -5.8140   -54.8040 na         1 ND2       0.126800
     23 N13        -54.0280    -7.4550   -51.2170 nb         1 ND2      -0.273000
     24 O15        -55.7020    -6.6850   -49.7460 os         1 ND2      -0.441300
     25 C17        -54.3290    -6.3880   -47.7490 c3         1 ND2      -0.072100
     26 C18        -54.2260    -4.6370   -49.7560 cx         1 ND2      -0.129400
     27 N21        -56.0100    -9.3370   -48.7510 nb         1 ND2      -0.640000
     28 C23        -55.3340   -11.6490   -48.8170 ca         1 ND2      -0.119000
     29 C25        -54.2670   -10.0490   -50.2910 ca         1 ND2       0.049000
     30 C28        -57.9780    -9.9070   -46.6370 cc         1 ND2       0.281900
     31 N30        -58.3940   -11.7830   -45.7560 na         1 ND2       0.121800
     32 N34        -52.0330    -5.0390   -54.2890 nc         1 ND2      -0.515800
     33 H1         -47.5300    -1.7300   -58.1640 h1         1 ND2       0.032367
     34 H2         -47.2700    -3.3250   -58.9100 h1         1 ND2       0.032367
     35 H3         -48.5980    -2.2810   -59.4700 h1         1 ND2       0.032367
     36 H4         -50.2520    -4.0460   -59.0560 h1         1 ND2       0.033450
     37 H5         -49.0330    -5.1730   -58.4420 h1         1 ND2       0.033450
     38 H6         -47.4790    -4.3710   -56.5420 h1         1 ND2       0.033450
     39 H7         -47.6920    -2.7250   -55.9270 h1         1 ND2       0.033450
     40 H8         -50.2420    -7.8530   -54.5730 h4         1 ND2       0.152000
     41 H9         -56.3910    -4.1460   -49.4910 hc         1 ND2       0.084450
     42 H10        -55.3570    -3.7950   -48.0220 hc         1 ND2       0.084450
     43 H11        -53.7730   -12.1610   -50.2300 ha         1 ND2       0.136000
     44 H12        -60.1150   -12.7930   -45.0810 h1         1 ND2       0.057700
     45 H13        -58.6090   -13.7570   -45.0420 h1         1 ND2       0.057700
     46 H14        -58.8790   -12.4740   -43.8260 h1         1 ND2       0.057700
     47 H15        -56.9750   -13.0370   -46.8560 h4         1 ND2       0.152000
     48 H16        -53.4970    -5.5190   -52.9010 h4         1 ND2       0.066100
     49 H18        -51.5000    -4.1330   -56.9340 hc         1 ND2       0.067450
     50 H19        -51.2670    -5.7670   -57.5550 hc         1 ND2       0.067450
     51 H20        -49.3360    -6.1220   -56.0380 h1         1 ND2       0.050700
     52 H21        -48.6570    -4.4200   -54.3660 hc         1 ND2       0.067450
     53 H22        -49.8820    -3.2980   -54.9570 hc         1 ND2       0.067450
     54 H23        -51.8170    -9.0830   -52.8790 hn         1 ND2       0.512000
     55 H24        -53.9350    -5.6220   -47.0700 hc         1 ND2       0.054033
     56 H25        -55.0890    -6.9550   -47.2010 hc         1 ND2       0.054033
     57 H26        -53.5000    -7.0640   -47.9900 hc         1 ND2       0.054033
     58 H27        -53.2750    -4.2830   -49.3670 hc         1 ND2       0.084450
     59 H28        -54.3150    -4.6060   -50.8380 hc         1 ND2       0.084450
     60 H29        -55.4360   -12.6640   -48.4490 ha         1 ND2       0.119000
     61 H30        -58.0500    -8.8440   -46.8290 h4         1 ND2       0.047100
     62 N11        -52.3660    -8.2500   -52.6620 nu         1 ND2      -0.897900
     63 C31        -59.0390   -12.7630   -44.8710 c3         1 ND2       0.076900
@<TRIPOS>BOND
     1     1    18 1   
     2     1    33 1   
     3     1    34 1   
     4     1    35 1   
     5     2    18 1   
     6     2    19 1   
     7     2    36 1   
     8     2    37 1   
     9     3    18 1   
    10     3    21 1   
    11     3    38 1   
    12     3    39 1   
    13     4     5 2   
    14     4    22 1   
    15     4    40 1   
    16     5    17 1   
    17     5    62 1   
    18     6    13 ar  
    19     6    23 ar  
    20     6    62 1   
    21     7    10 ar  
    22     7    23 ar  
    23     7    24 1   
    24     8     9 1   
    25     8    24 1   
    26     8    25 1   
    27     8    26 1   
    28     9    26 1   
    29     9    41 1   
    30     9    42 1   
    31    10    27 ar  
    32    10    29 ar  
    33    11    14 1   
    34    11    27 ar  
    35    11    28 ar  
    36    12    28 ar  
    37    12    29 ar  
    38    12    43 1   
    39    13    29 ar  
    40    14    16 2   
    41    14    30 1   
    42    15    30 2   
    43    15    31 1   
    44    16    31 1   
    45    16    47 1   
    46    17    32 2   
    47    17    48 1   
    48    19    20 1   
    49    19    49 1   
    50    19    50 1   
    51    20    21 1   
    52    20    22 1   
    53    20    51 1   
    54    21    52 1   
    55    21    53 1   
    56    22    32 1   
    57    25    55 1   
    58    25    56 1   
    59    25    57 1   
    60    26    58 1   
    61    26    59 1   
    62    28    60 1   
    63    30    61 1   
    64    31    63 1   
    65    44    63 1   
    66    45    63 1   
    67    46    63 1   
    68    54    62 1   
@<TRIPOS>SUBSTRUCTURE
     1 ND2         1 TEMP              0 ****  ****    0 ROOT
