@<TRIPOS>MOLECULE
ND2
   63    68     1     0     0
SMALL
abcg2


@<TRIPOS>ATOM
      1 C1         -48.2400    -2.4600   -58.8200 c3         1 ND2       0.151100
      2 C3         -49.8820    -4.1600   -58.3720 c6         1 ND2       0.164800
      3 C7         -48.2620    -3.5760   -56.6880 c6         1 ND2       0.164800
      4 C9         -50.9120    -7.1080   -54.6740 cc         1 ND2      -0.226000
      5 C10        -51.8950    -7.1950   -53.7000 cd         1 ND2       0.188000
      6 C12        -53.0170    -8.5540   -51.9410 ca         1 ND2       0.429900
      7 C14        -54.3480    -7.6030   -50.3310 ca         1 ND2       0.440300
      8 C16        -55.3930    -6.2030   -48.5880 cx         1 ND2       0.152000
      9 C19        -54.6910    -5.0970   -47.8610 cx         1 ND2      -0.129400
     10 C20        -54.6150    -8.9050   -49.7790 ca         1 ND2       0.093000
     11 C22        -55.6580   -10.3150   -48.2810 ca         1 ND2       0.430500
     12 C24        -54.1570   -11.2730   -49.9080 ca         1 ND2      -0.082000
     13 N26        -53.1410    -9.8020   -51.5050 nb         1 ND2      -0.279000
     14 C27        -56.5830   -10.4740   -47.1640 cc         1 ND2      -0.269500
     15 N29        -58.0060    -9.9640   -45.4730 nd         1 ND2      -0.530800
     16 C32        -57.0480   -11.6510   -46.5880 cd         1 ND2      -0.143000
     17 C33        -52.4200    -5.8880   -53.6060 cd         1 ND2       0.253900
     18 N2         -49.0700    -3.0870   -57.8030 n3         1 ND2      -0.716600
     19 C4         -50.8220    -4.7550   -57.3300 c6         1 ND2      -0.087900
     20 C5         -50.0250    -5.2590   -56.1290 c6         1 ND2       0.110300
     21 C6         -49.1360    -4.1470   -55.5780 c6         1 ND2      -0.087900
     22 N8         -50.8950    -5.8220   -55.0990 na         1 ND2       0.126800
     23 N13        -53.5830    -7.4600   -51.3880 nb         1 ND2      -0.273000
     24 O15        -54.8340    -6.4380   -49.8910 os         1 ND2      -0.441300
     25 C17        -56.8920    -6.2850   -48.5800 c3         1 ND2      -0.072100
     26 C18        -54.5470    -6.5360   -47.4110 cx         1 ND2      -0.129400
     27 N21        -55.4590    -9.0940   -48.7450 nb         1 ND2      -0.640000
     28 C23        -54.9960   -11.4410   -48.8480 ca         1 ND2      -0.119000
     29 C25        -53.9420    -9.9730   -50.4330 ca         1 ND2       0.049000
     30 C28        -57.2220    -9.4570   -46.4190 cc         1 ND2       0.281900
     31 N30        -57.8870   -11.3040   -45.5940 na         1 ND2       0.121800
     32 N34        -51.8000    -5.0690   -54.4610 nc         1 ND2      -0.515800
     33 H1         -47.6770    -1.6350   -58.3800 h1         1 ND2       0.032367
     34 H2         -47.5200    -3.1650   -59.2700 h1         1 ND2       0.032367
     35 H3         -48.8710    -2.0630   -59.6170 h1         1 ND2       0.032367
     36 H4         -50.4610    -3.7510   -59.2020 h1         1 ND2       0.033450
     37 H5         -49.2390    -4.9580   -58.7870 h1         1 ND2       0.033450
     38 H6         -47.5510    -4.3510   -57.0310 h1         1 ND2       0.033450
     39 H7         -47.6680    -2.7460   -56.3020 h1         1 ND2       0.033450
     40 H8         -50.2500    -7.8540   -55.0810 h4         1 ND2       0.152000
     41 H9         -53.8390    -4.6450   -48.3520 hc         1 ND2       0.084450
     42 H10        -55.2990    -4.4230   -47.2730 hc         1 ND2       0.084450
     43 H11        -53.6470   -12.1100   -50.3680 ha         1 ND2       0.136000
     44 H12        -59.6960   -12.0240   -44.8340 h1         1 ND2       0.057700
     45 H13        -58.3820   -13.2140   -44.9670 h1         1 ND2       0.057700
     46 H14        -58.3460   -11.9920   -43.6750 h1         1 ND2       0.057700
     47 H15        -56.8500   -12.6860   -46.8130 h4         1 ND2       0.152000
     48 H16        -53.1980    -5.5240   -52.9610 h4         1 ND2       0.066100
     49 H18        -51.5290    -3.9930   -56.9970 hc         1 ND2       0.067450
     50 H19        -51.3910    -5.5760   -57.7700 hc         1 ND2       0.067450
     51 H20        -49.3910    -6.0890   -56.4510 h1         1 ND2       0.050700
     52 H21        -48.5070    -4.5350   -54.7730 hc         1 ND2       0.067450
     53 H22        -49.7640    -3.3570   -55.1630 hc         1 ND2       0.067450
     54 H23        -51.8050    -9.2230   -53.3830 hn         1 ND2       0.512000
     55 H24        -57.2690    -6.0240   -47.5900 hc         1 ND2       0.054033
     56 H25        -57.3100    -5.5800   -49.3010 hc         1 ND2       0.054033
     57 H26        -57.2240    -7.2920   -48.8240 hc         1 ND2       0.054033
     58 H27        -55.0530    -6.8630   -46.5140 hc         1 ND2       0.084450
     59 H28        -53.5980    -7.0210   -47.5990 hc         1 ND2       0.084450
     60 H29        -55.1630   -12.4280   -48.4380 ha         1 ND2       0.119000
     61 H30        -57.1320    -8.3900   -46.5390 h4         1 ND2       0.047100
     62 N11        -52.2340    -8.3760   -53.0400 nu         1 ND2      -0.897900
     63 C31        -58.6260   -12.1860   -44.7110 c3         1 ND2       0.076900
@<TRIPOS>BOND
     1     1    18 1   
     2     1    33 1   
     3     1    34 1   
     4     1    35 1   
     5     2    18 1   
     6     2    19 1   
     7     2    36 1   
     8     2    37 1   
     9     3    18 1   
    10     3    21 1   
    11     3    38 1   
    12     3    39 1   
    13     4     5 2   
    14     4    22 1   
    15     4    40 1   
    16     5    17 1   
    17     5    62 1   
    18     6    13 ar  
    19     6    23 ar  
    20     6    62 1   
    21     7    10 ar  
    22     7    23 ar  
    23     7    24 1   
    24     8     9 1   
    25     8    24 1   
    26     8    25 1   
    27     8    26 1   
    28     9    26 1   
    29     9    41 1   
    30     9    42 1   
    31    10    27 ar  
    32    10    29 ar  
    33    11    14 1   
    34    11    27 ar  
    35    11    28 ar  
    36    12    28 ar  
    37    12    29 ar  
    38    12    43 1   
    39    13    29 ar  
    40    14    16 2   
    41    14    30 1   
    42    15    30 2   
    43    15    31 1   
    44    16    31 1   
    45    16    47 1   
    46    17    32 2   
    47    17    48 1   
    48    19    20 1   
    49    19    49 1   
    50    19    50 1   
    51    20    21 1   
    52    20    22 1   
    53    20    51 1   
    54    21    52 1   
    55    21    53 1   
    56    22    32 1   
    57    25    55 1   
    58    25    56 1   
    59    25    57 1   
    60    26    58 1   
    61    26    59 1   
    62    28    60 1   
    63    30    61 1   
    64    31    63 1   
    65    44    63 1   
    66    45    63 1   
    67    46    63 1   
    68    54    62 1   
@<TRIPOS>SUBSTRUCTURE
     1 ND2         1 TEMP              0 ****  ****    0 ROOT
