@<TRIPOS>MOLECULE
ND3
   28    28     1     0     0
SMALL
No Charge or Current Charge


@<TRIPOS>ATOM
      1 OAC          2.6080    -1.5490     0.8780 o          1 ND3      -0.707000
      2 CAJ          2.3570    -0.7140     0.0190 c          1 ND3       0.703000
      3 OAE          3.1820    -0.3770    -0.8230 o          1 ND3      -0.707000
      4 CAO          0.8310    -0.3990    -0.3350 c6         1 ND3       0.043000
      5 OAH          0.7250    -0.2660    -1.7750 oh         1 ND3      -0.710000
      6 CAI         -0.0940    -1.5820     0.0990 c6         1 ND3      -0.060400
      7 CAL         -1.5620    -1.3490    -0.3100 c6         1 ND3       0.185300
      8 OAF         -2.3750    -2.4610     0.0860 oh         1 ND3      -0.672000
      9 CAM         -2.1380    -0.0540     0.3120 c6         1 ND3       0.025300
     10 OAG         -3.4750     0.2110    -0.2010 oh         1 ND3      -0.665000
     11 CAK         -1.1930     1.1850     0.1710 c          1 ND3       0.571100
     12 OAD         -1.6760     2.3150     0.1170 o          1 ND3      -0.550100
     13 CAN          0.3490     0.9610     0.3200 c6         1 ND3      -0.128000
     14 CAB          0.6260     0.9740     1.8640 c3         1 ND3      -0.069100
     15 CAA          1.1180     2.2020    -0.2620 c3         1 ND3      -0.069100
     16 HAH          1.6670    -0.1820    -2.0700 ho         1 ND3       0.483000
     17 HAI1         0.2610    -2.5090    -0.3720 hc         1 ND3       0.062700
     18 HAI2        -0.0330    -1.7560     1.1810 hc         1 ND3       0.062700
     19 HAL         -1.6040    -1.2440    -1.4050 h1         1 ND3       0.056700
     20 HAF         -3.2980    -2.1240     0.0310 ho         1 ND3       0.439000
     21 HAM         -2.1940    -0.2170     1.3990 h1         1 ND3       0.047700
     22 HAG         -3.6390     1.1750    -0.0730 ho         1 ND3       0.444000
     23 HAB1         1.6950     0.8930     2.0920 hc         1 ND3       0.035700
     24 HAB2         0.2760     1.9080     2.3210 hc         1 ND3       0.035700
     25 HAB3         0.1140     0.1590     2.3880 hc         1 ND3       0.035700
     26 HAA1         0.9040     2.3510    -1.3270 hc         1 ND3       0.035700
     27 HAA2         0.8410     3.1310     0.2520 hc         1 ND3       0.035700
     28 HAA3         2.2040     2.0970    -0.1550 hc         1 ND3       0.035700
@<TRIPOS>BOND
     1     1     2 1   
     2     2     3 1   
     3     2     4 1   
     4     4     5 1   
     5     4     6 1   
     6     4    13 1   
     7     5    16 1   
     8     6     7 1   
     9     6    17 1   
    10     6    18 1   
    11     7     8 1   
    12     7     9 1   
    13     7    19 1   
    14     8    20 1   
    15     9    10 1   
    16     9    11 1   
    17     9    21 1   
    18    10    22 1   
    19    11    12 2   
    20    11    13 1   
    21    13    14 1   
    22    13    15 1   
    23    14    23 1   
    24    14    24 1   
    25    14    25 1   
    26    15    26 1   
    27    15    27 1   
    28    15    28 1   
@<TRIPOS>SUBSTRUCTURE
     1 ND3         1 TEMP              0 ****  ****    0 ROOT
