@<TRIPOS>MOLECULE
ND3
   28    28     1     0     0
SMALL
abcg2


@<TRIPOS>ATOM
      1 OAC          2.6270    -1.0820     0.9990 o          1 ND3      -0.707000
      2 CAJ          2.2840    -0.6900    -0.1240 c          1 ND3       0.703000
      3 OAE          3.0140    -0.5230    -1.1290 o          1 ND3      -0.707000
      4 CAO          0.7850    -0.3660    -0.3700 c6         1 ND3       0.043000
      5 OAH          0.6110    -0.1720    -1.7550 oh         1 ND3      -0.710000
      6 CAI         -0.0930    -1.5380     0.0700 c6         1 ND3      -0.060400
      7 CAL         -1.5560    -1.2980    -0.2580 c6         1 ND3       0.185300
      8 OAF         -2.3050    -2.3800     0.2460 oh         1 ND3      -0.672000
      9 CAM         -2.0370     0.0280     0.3380 c6         1 ND3       0.025300
     10 OAG         -3.3410     0.2530    -0.1140 oh         1 ND3      -0.665000
     11 CAK         -1.0900     1.1660    -0.0240 c          1 ND3       0.571100
     12 OAD         -1.5140     2.1700    -0.5450 o          1 ND3      -0.550100
     13 CAN          0.3700     0.9610     0.3450 c6         1 ND3      -0.128000
     14 CAB          0.4720     0.9080     1.8800 c3         1 ND3      -0.069100
     15 CAA          1.2110     2.1380    -0.1440 c3         1 ND3      -0.069100
     16 HAH          1.5350    -0.1750    -2.0770 ho         1 ND3       0.483000
     17 HAI1         0.2410    -2.4450    -0.4430 hc         1 ND3       0.062700
     18 HAI2         0.0240    -1.7230     1.1390 hc         1 ND3       0.062700
     19 HAL         -1.6710    -1.2290    -1.3480 h1         1 ND3       0.056700
     20 HAF         -3.2200    -2.2700    -0.0310 ho         1 ND3       0.439000
     21 HAM         -2.0070    -0.0740     1.4350 h1         1 ND3       0.047700
     22 HAG         -3.6790     1.0620     0.2850 ho         1 ND3       0.444000
     23 HAB1         1.5150     0.8730     2.1850 hc         1 ND3       0.035700
     24 HAB2         0.0300     1.8070     2.3130 hc         1 ND3       0.035700
     25 HAB3        -0.0250     0.0490     2.3260 hc         1 ND3       0.035700
     26 HAA1         1.1570     2.2680    -1.2230 hc         1 ND3       0.035700
     27 HAA2         0.8820     3.0670     0.3200 hc         1 ND3       0.035700
     28 HAA3         2.2570     1.9950     0.1280 hc         1 ND3       0.035700
@<TRIPOS>BOND
     1     1     2 1   
     2     2     3 1   
     3     2     4 1   
     4     4     5 1   
     5     4     6 1   
     6     4    13 1   
     7     5    16 1   
     8     6     7 1   
     9     6    17 1   
    10     6    18 1   
    11     7     8 1   
    12     7     9 1   
    13     7    19 1   
    14     8    20 1   
    15     9    10 1   
    16     9    11 1   
    17     9    21 1   
    18    10    22 1   
    19    11    12 2   
    20    11    13 1   
    21    13    14 1   
    22    13    15 1   
    23    14    23 1   
    24    14    24 1   
    25    14    25 1   
    26    15    26 1   
    27    15    27 1   
    28    15    28 1   
@<TRIPOS>SUBSTRUCTURE
     1 ND3         1 TEMP              0 ****  ****    0 ROOT
