@<TRIPOS>MOLECULE
ND5
   25    25     1     0     0
SMALL
abcg2


@<TRIPOS>ATOM
      1 C01          0.0740     1.1530     7.7350 ca         1 ND5       0.197100
      2 C02         -0.1610    -0.0740     7.0960 ca         1 ND5      -0.134900
      3 C03         -0.3640    -1.2230     7.8550 ca         1 ND5      -0.012000
      4 C04         -0.3360    -1.1610     9.2350 ca         1 ND5      -0.064900
      5 C05         -0.1080     0.0390     9.8890 ca         1 ND5      -0.026000
      6 C06          0.0920     1.1820     9.1330 ca         1 ND5      -0.128900
      7 C09         -0.1950    -0.1290     5.6320 ce         1 ND5       0.378800
      8 C13         -1.3980    -2.1340     3.1200 c3         1 ND5       0.187600
      9 C14         -2.8850    -1.8730     3.1830 c3         1 ND5      -0.243400
     10 C15         -3.3310    -0.5890     2.4480 c          1 ND5       0.723000
     11 N11         -0.7290    -1.1310     5.0620 n2         1 ND5      -0.305700
     12 O07          0.2510     2.2210     6.9540 oh         1 ND5      -0.509100
     13 O12         -0.6350    -1.0850     3.7140 os         1 ND5      -0.285000
     14 O16         -2.7080    -0.2960     1.4090 o          1 ND5      -0.736000
     15 O17         -4.2990     0.0240     2.9400 o          1 ND5      -0.736000
     16 BR1         -0.5960    -2.7320    10.2470 br         1 ND5      -0.107100
     17 BR8          0.3850     2.8170    10.0280 br         1 ND5      -0.114100
     18 H03         -0.5270    -2.1630     7.3450 ha         1 ND5       0.156000
     19 H05         -0.0840     0.0900    10.9700 ha         1 ND5       0.134000
     20 H09          0.2470     0.6840     5.0620 h4         1 ND5       0.022800
     21 H131        -1.1400    -3.0850     3.5960 h1         1 ND5       0.034700
     22 H132        -1.0580    -2.1700     2.0860 h1         1 ND5       0.034700
     23 H142        -3.2240    -1.8610     4.2220 hc         1 ND5       0.028700
     24 H141        -3.3860    -2.7270     2.7130 hc         1 ND5       0.028700
     25 HO07         0.4540     3.0230     7.4520 ho         1 ND5       0.477000
@<TRIPOS>BOND
     1     1     2 ar  
     2     1     6 ar  
     3     1    12 1   
     4     2     3 ar  
     5     2     7 1   
     6     3     4 ar  
     7     3    18 1   
     8     4     5 ar  
     9     4    16 1   
    10     5     6 ar  
    11     5    19 1   
    12     6    17 1   
    13     7    11 2   
    14     7    20 1   
    15     8     9 1   
    16     8    13 1   
    17     8    21 1   
    18     8    22 1   
    19     9    10 1   
    20     9    23 1   
    21     9    24 1   
    22    10    14 1   
    23    10    15 1   
    24    11    13 1   
    25    12    25 1   
@<TRIPOS>SUBSTRUCTURE
     1 ND5         1 TEMP              0 ****  ****    0 ROOT
