@<TRIPOS>MOLECULE
ND5
   25    25     1     0     0
SMALL
No Charge or Current Charge


@<TRIPOS>ATOM
      1 C01          0.1910     1.1870     7.8440 ca         1 ND5       0.197100
      2 C02         -0.2580     0.0380     7.1570 ca         1 ND5      -0.134900
      3 C03         -0.6090    -1.1110     7.9040 ca         1 ND5      -0.012000
      4 C04         -0.5130    -1.1050     9.3060 ca         1 ND5      -0.064900
      5 C05         -0.0670     0.0400     9.9820 ca         1 ND5      -0.026000
      6 C06          0.2850     1.1860     9.2500 ca         1 ND5      -0.128900
      7 C09         -0.3570     0.0400     5.6630 ce         1 ND5       0.378800
      8 C13         -1.2800    -1.9930     2.9250 c3         1 ND5       0.187600
      9 C14         -2.8160    -2.1030     3.0660 c3         1 ND5      -0.243400
     10 C15         -3.4860    -0.9360     2.3360 c          1 ND5       0.723000
     11 N11         -0.7500    -1.0060     5.0030 n2         1 ND5      -0.305700
     12 O07          0.5400     2.3130     7.1570 oh         1 ND5      -0.509100
     13 O12         -0.7960    -0.8140     3.6020 os         1 ND5      -0.285000
     14 O16         -3.6820    -1.0520     1.1360 o          1 ND5      -0.736000
     15 O17         -3.7940     0.0560     2.9780 o          1 ND5      -0.736000
     16 Br1         -0.9930    -2.6680    10.2990 br         1 ND5      -0.107100
     17 Br8          0.8940     2.7400    10.2000 br         1 ND5      -0.114100
     18 H03         -0.9590    -2.0130     7.4050 ha         1 ND5       0.156000
     19 H05          0.0060     0.0390    11.0670 ha         1 ND5       0.134000
     20 H09         -0.0840     0.9590     5.1380 h4         1 ND5       0.022800
     21 H131        -0.8020    -2.8970     3.3280 h1         1 ND5       0.034700
     22 H132        -1.0280    -1.9380     1.8580 h1         1 ND5       0.034700
     23 H142        -3.0550    -2.0960     4.1360 hc         1 ND5       0.028700
     24 H141        -3.0680    -3.0480     2.5710 hc         1 ND5       0.028700
     25 HO07         0.8200     2.9860     7.8140 ho         1 ND5       0.477000
@<TRIPOS>BOND
     1     1     2 ar  
     2     1     6 ar  
     3     1    12 1   
     4     2     3 ar  
     5     2     7 1   
     6     3     4 ar  
     7     3    18 1   
     8     4     5 ar  
     9     4    16 1   
    10     5     6 ar  
    11     5    19 1   
    12     6    17 1   
    13     7    11 2   
    14     7    20 1   
    15     8     9 1   
    16     8    13 1   
    17     8    21 1   
    18     8    22 1   
    19     9    10 1   
    20     9    23 1   
    21     9    24 1   
    22    10    14 1   
    23    10    15 1   
    24    11    13 1   
    25    12    25 1   
@<TRIPOS>SUBSTRUCTURE
     1 ND5         1 TEMP              0 ****  ****    0 ROOT
