@<TRIPOS>MOLECULE
ND6
   50    52     1     0     0
SMALL
No Charge or Current Charge


@<TRIPOS>ATOM
      1 C01        -30.9730   -15.3380    -6.9660 c3         1 ND6       0.167600
      2 C02        -32.3320   -14.6830    -7.3310 c3         1 ND6      -0.020400
      3 C03        -33.0560   -15.4730    -8.4450 c3         1 ND6      -0.087100
      4 C04        -32.1930   -13.2060    -7.7180 ca         1 ND6      -0.052300
      5 C05        -31.3620   -12.8120    -8.7870 ca         1 ND6      -0.100500
      6 C06        -31.2510   -11.4580    -9.1430 ca         1 ND6      -0.091000
      7 C07        -31.9750   -10.4740    -8.4430 ca         1 ND6      -0.076300
      8 C08        -31.8700    -9.0010    -8.8340 c3         1 ND6      -0.106100
      9 C09        -33.2060    -8.4790    -9.3980 c          1 ND6       0.607100
     10 C11        -34.7100    -7.9320   -11.3260 c6         1 ND6       0.079500
     11 C12        -34.7480    -7.6840   -12.8560 c6         1 ND6       0.198800
     12 C14        -34.7580    -9.1420   -14.9190 ca         1 ND6       0.592900
     13 C17        -35.9250    -9.6280   -17.3610 ca         1 ND6       0.294000
     14 C18        -36.6030    -9.8640   -18.6100 cg         1 ND6       0.233000
     15 C20        -34.5320    -9.8060   -17.2390 ca         1 ND6      -0.037000
     16 C21        -33.9340    -9.5570   -15.9860 ca         1 ND6      -0.199000
     17 C22        -32.9050    -9.2880   -13.1970 c6         1 ND6       0.198800
     18 C23        -32.8150    -9.5400   -11.6660 c6         1 ND6       0.079500
     19 C25        -32.8030   -10.8650    -7.3730 ca         1 ND6      -0.091000
     20 C26        -32.9120   -12.2200    -7.0150 ca         1 ND6      -0.100500
     21 N10        -33.4180    -8.4760   -10.7980 n          1 ND6      -0.423800
     22 N13        -34.2680    -8.8700   -13.6190 nh         1 ND6      -0.775300
     23 N15        -36.0940    -8.9850   -15.1020 nb         1 ND6      -0.412000
     24 N16        -36.6710    -9.2230   -16.3020 nb         1 ND6      -0.227000
     25 N19        -37.1430   -10.0580   -19.6290 n1         1 ND6      -0.438000
     26 O04        -30.3860   -14.6870    -5.8310 oh         1 ND6      -0.656000
     27 O24        -34.0620    -8.0410    -8.6380 o          1 ND6      -0.577100
     28 H1         -31.1390   -16.3990    -6.7390 h1         1 ND6       0.017700
     29 H2         -30.2950   -15.2870    -7.8280 h1         1 ND6       0.017700
     30 H3         -32.9650   -14.7580    -6.4370 hc         1 ND6       0.061700
     31 H4         -33.2280   -16.5110    -8.1360 hc         1 ND6       0.038700
     32 H5         -34.0300   -15.0190    -8.6670 hc         1 ND6       0.038700
     33 H6         -32.4650   -15.4840    -9.3690 hc         1 ND6       0.038700
     34 H7         -30.8000   -13.5560    -9.3470 ha         1 ND6       0.110000
     35 H8         -30.5980   -11.1780    -9.9660 ha         1 ND6       0.107000
     36 H9         -31.0760    -8.8780    -9.5780 hc         1 ND6       0.061700
     37 H10        -31.6140    -8.4160    -7.9430 hc         1 ND6       0.061700
     38 H11        -34.9440    -6.9850   -10.8200 h1         1 ND6       0.066700
     39 H12        -35.5120    -8.6390   -11.0710 h1         1 ND6       0.066700
     40 H13        -34.1150    -6.8140   -13.0880 h1         1 ND6       0.068200
     41 H14        -35.7770    -7.4100   -13.1300 h1         1 ND6       0.068200
     42 H15        -33.9360   -10.1260   -18.0900 ha         1 ND6       0.138000
     43 H16        -32.8630    -9.6720   -15.8630 ha         1 ND6       0.131000
     44 H17        -32.6030   -10.2170   -13.7030 h1         1 ND6       0.068200
     45 H18        -32.1750    -8.5130   -13.4730 h1         1 ND6       0.068200
     46 H19        -33.3230   -10.4890   -11.4430 h1         1 ND6       0.066700
     47 H20        -31.7550    -9.6820   -11.4260 h1         1 ND6       0.066700
     48 H21        -33.3660   -10.1190    -6.8180 ha         1 ND6       0.107000
     49 H22        -33.5600   -12.5000    -6.1880 ha         1 ND6       0.110000
     50 H23        -29.5300   -15.1370    -5.6560 ho         1 ND6       0.441000
@<TRIPOS>BOND
     1     1     2 1   
     2     1    26 1   
     3     1    28 1   
     4     1    29 1   
     5     2     3 1   
     6     2     4 1   
     7     2    30 1   
     8     3    31 1   
     9     3    32 1   
    10     3    33 1   
    11     4     5 ar  
    12     4    20 ar  
    13     5     6 ar  
    14     5    34 1   
    15     6     7 ar  
    16     6    35 1   
    17     7     8 1   
    18     7    19 ar  
    19     8     9 1   
    20     8    36 1   
    21     8    37 1   
    22     9    21 1   
    23     9    27 2   
    24    10    11 1   
    25    10    21 1   
    26    10    38 1   
    27    10    39 1   
    28    11    22 1   
    29    11    40 1   
    30    11    41 1   
    31    12    16 ar  
    32    12    22 1   
    33    12    23 ar  
    34    13    14 1   
    35    13    15 ar  
    36    13    24 ar  
    37    14    25 3   
    38    15    16 ar  
    39    15    42 1   
    40    16    43 1   
    41    17    18 1   
    42    17    22 1   
    43    17    44 1   
    44    17    45 1   
    45    18    21 1   
    46    18    46 1   
    47    18    47 1   
    48    19    20 ar  
    49    19    48 1   
    50    20    49 1   
    51    23    24 ar  
    52    26    50 1   
@<TRIPOS>SUBSTRUCTURE
     1 ND6         1 TEMP              0 ****  ****    0 ROOT
