@<TRIPOS>MOLECULE
ND6
   50    52     1     0     0
SMALL
abcg2


@<TRIPOS>ATOM
      1 C01        -30.5600   -14.5420    -5.1730 c3         1 ND6       0.167600
      2 C02        -31.8340   -13.7350    -5.3800 c3         1 ND6      -0.020400
      3 C03        -33.0540   -14.6110    -5.0950 c3         1 ND6      -0.087100
      4 C04        -31.9070   -13.1220    -6.7580 ca         1 ND6      -0.052300
      5 C05        -31.8980   -13.9140    -7.9050 ca         1 ND6      -0.100500
      6 C06        -31.9880   -13.3450    -9.1660 ca         1 ND6      -0.091000
      7 C07        -32.0960   -11.9660    -9.3240 ca         1 ND6      -0.076300
      8 C08        -32.2110   -11.3560   -10.6890 c3         1 ND6      -0.106100
      9 C09        -33.6640   -11.2360   -11.1360 c          1 ND6       0.607100
     10 C11        -35.2280   -10.5770   -12.8920 c6         1 ND6       0.079500
     11 C12        -35.4650    -9.1090   -13.2110 c6         1 ND6       0.198800
     12 C14        -34.7530    -8.0000   -15.2840 ca         1 ND6       0.592900
     13 C17        -35.5990    -6.8030   -17.5190 ca         1 ND6       0.294000
     14 C18        -36.1550    -6.1790   -18.6760 cg         1 ND6       0.233000
     15 C20        -34.2160    -6.8790   -17.3130 ca         1 ND6      -0.037000
     16 C21        -33.7790    -7.4860   -16.1750 ca         1 ND6      -0.199000
     17 C22        -33.0990    -8.8290   -13.6420 c6         1 ND6       0.198800
     18 C23        -32.8700   -10.2990   -13.3090 c6         1 ND6       0.079500
     19 C25        -32.1020   -11.1740    -8.1830 ca         1 ND6      -0.091000
     20 C26        -32.0070   -11.7440    -6.9200 ca         1 ND6      -0.100500
     21 N10        -33.8820   -10.7750   -12.3900 n          1 ND6      -0.423800
     22 N13        -34.4480    -8.6230   -14.1320 nh         1 ND6      -0.775300
     23 N15        -36.0660    -7.8740   -15.5680 nb         1 ND6      -0.412000
     24 N16        -36.4700    -7.2940   -16.6520 nb         1 ND6      -0.227000
     25 N19        -36.5950    -5.6680   -19.6100 n1         1 ND6      -0.438000
     26 O04        -29.4420   -13.7140    -5.3980 oh         1 ND6      -0.656000
     27 O24        -34.5780   -11.5540   -10.3940 o          1 ND6      -0.577100
     28 H1         -30.5660   -14.9420    -4.1500 h1         1 ND6       0.017700
     29 H2         -30.5640   -15.4090    -5.8490 h1         1 ND6       0.017700
     30 H3         -31.8300   -12.9180    -4.6500 hc         1 ND6       0.061700
     31 H4         -33.0200   -15.0110    -4.0800 hc         1 ND6       0.038700
     32 H5         -33.9770   -14.0410    -5.1980 hc         1 ND6       0.038700
     33 H6         -33.1070   -15.4570    -5.7840 hc         1 ND6       0.038700
     34 H7         -31.8170   -14.9920    -7.8180 ha         1 ND6       0.110000
     35 H8         -31.9740   -13.9840   -10.0420 ha         1 ND6       0.107000
     36 H9         -31.6520   -11.9530   -11.4140 hc         1 ND6       0.061700
     37 H10        -31.7520   -10.3630   -10.6940 hc         1 ND6       0.061700
     38 H11        -35.9500   -10.9130   -12.1530 h1         1 ND6       0.066700
     39 H12        -35.3640   -11.1760   -13.7980 h1         1 ND6       0.066700
     40 H13        -35.4210    -8.5190   -12.2900 h1         1 ND6       0.068200
     41 H14        -36.4500    -8.9800   -13.6470 h1         1 ND6       0.068200
     42 H15        -33.5210    -6.4670   -18.0320 ha         1 ND6       0.138000
     43 H16        -32.7190    -7.5570   -15.9840 ha         1 ND6       0.131000
     44 H17        -32.3560    -8.5230   -14.3720 h1         1 ND6       0.068200
     45 H18        -32.9460    -8.2220   -12.7440 h1         1 ND6       0.068200
     46 H19        -32.9100   -10.8910   -14.2280 h1         1 ND6       0.066700
     47 H20        -31.8720   -10.4100   -12.8940 h1         1 ND6       0.066700
     48 H21        -32.1780   -10.0970    -8.2790 ha         1 ND6       0.107000
     49 H22        -32.0130   -11.1040    -6.0460 ha         1 ND6       0.110000
     50 H23        -28.6490   -14.2420    -5.2720 ho         1 ND6       0.441000
@<TRIPOS>BOND
     1     1     2 1   
     2     1    26 1   
     3     1    28 1   
     4     1    29 1   
     5     2     3 1   
     6     2     4 1   
     7     2    30 1   
     8     3    31 1   
     9     3    32 1   
    10     3    33 1   
    11     4     5 ar  
    12     4    20 ar  
    13     5     6 ar  
    14     5    34 1   
    15     6     7 ar  
    16     6    35 1   
    17     7     8 1   
    18     7    19 ar  
    19     8     9 1   
    20     8    36 1   
    21     8    37 1   
    22     9    21 1   
    23     9    27 2   
    24    10    11 1   
    25    10    21 1   
    26    10    38 1   
    27    10    39 1   
    28    11    22 1   
    29    11    40 1   
    30    11    41 1   
    31    12    16 ar  
    32    12    22 1   
    33    12    23 ar  
    34    13    14 1   
    35    13    15 ar  
    36    13    24 ar  
    37    14    25 3   
    38    15    16 ar  
    39    15    42 1   
    40    16    43 1   
    41    17    18 1   
    42    17    22 1   
    43    17    44 1   
    44    17    45 1   
    45    18    21 1   
    46    18    46 1   
    47    18    47 1   
    48    19    20 ar  
    49    19    48 1   
    50    20    49 1   
    51    23    24 ar  
    52    26    50 1   
@<TRIPOS>SUBSTRUCTURE
     1 ND6         1 TEMP              0 ****  ****    0 ROOT
