@<TRIPOS>MOLECULE
ND7
   37    39     1     0     0
SMALL
abcg2


@<TRIPOS>ATOM
      1 O1A         -4.9950     1.6650    -1.4870 o          1 ND7      -0.811500
      2 PA          -4.5200     1.1110    -0.1790 p5         1 ND7       1.330700
      3 O2A         -4.2250     1.9840     1.0060 o          1 ND7      -0.811500
      4 N3A         -5.6080    -0.0830     0.3320 n8         1 ND7      -1.106300
      5 O5          -3.1290     0.2950    -0.5910 os         1 ND7      -0.579400
      6 C5          -2.3800    -0.3260     0.4220 c3         1 ND7       0.227600
      7 C4          -1.4000    -1.2870    -0.2070 c5         1 ND7       0.155300
      8 C3          -0.4960    -1.9850     0.8040 c5         1 ND7       0.083300
      9 O3          -1.1280    -3.1210     1.3200 oh         1 ND7      -0.706000
     10 C2           0.7410    -2.2960    -0.0470 c5         1 ND7       0.095300
     11 O2           0.5170    -3.4060    -0.8730 oh         1 ND7      -0.706000
     12 C1           0.8000    -1.0570    -0.9390 c5         1 ND7       0.314300
     13 O4          -0.5060    -0.5910    -1.0770 os         1 ND7      -0.409000
     14 N9           1.6190    -0.0050    -0.3460 na         1 ND7      -0.303300
     15 C9           2.9820    -0.0000    -0.3160 ca         1 ND7       0.107500
     16 C7           3.3290     1.1840     0.3150 ca         1 ND7      -0.092600
     17 N7           2.2110     1.8950     0.6610 nc         1 ND7      -0.571100
     18 C8           1.2190     1.1580     0.2510 cd         1 ND7       0.437700
     19 N3           3.8170    -0.9250    -0.7890 nb         1 ND7      -0.214000
     20 C10          5.0790    -0.5860    -0.5920 ca         1 ND7       0.165900
     21 N1           5.5600     0.5090    -0.0070 nb         1 ND7      -0.315000
     22 C6           4.7080     1.4270     0.4630 ca         1 ND7       0.443900
     23 N6           5.1880     2.5220     1.0540 nv         1 ND7      -1.071900
     24 H2          -5.7920    -0.8270    -0.3280 hn         1 ND7       0.407500
     25 H3          -5.4400    -0.4760     1.2470 hn         1 ND7       0.407500
     26 H4          -1.8460     0.4100     1.0370 h1         1 ND7       0.016700
     27 H5          -3.0140    -0.9100     1.1030 h1         1 ND7       0.016700
     28 H6          -1.9540    -2.0360    -0.7860 h1         1 ND7       0.081700
     29 H7          -0.2160    -1.2830     1.6010 h1         1 ND7       0.057700
     30 H8          -0.6860    -3.3810     2.1350 ho         1 ND7       0.506000
     31 H9           1.6490    -2.4130     0.5550 h1         1 ND7       0.066700
     32 H10         -0.0160    -4.0400    -0.3760 ho         1 ND7       0.519000
     33 H11          1.2340    -1.2890    -1.9160 h2         1 ND7       0.114700
     34 H12          0.1780     1.4210     0.3470 h5         1 ND7       0.099800
     35 H13          5.8240    -1.2880    -0.9510 h5         1 ND7       0.037100
     36 H14          4.5740     3.2500     1.3740 hn         1 ND7       0.502000
     37 H15          6.1790     2.6840     1.0930 hn         1 ND7       0.502000
@<TRIPOS>BOND
     1     1     2 1   
     2     2     3 1   
     3     2     4 1   
     4     2     5 1   
     5     4    24 1   
     6     4    25 1   
     7     5     6 1   
     8     6     7 1   
     9     6    26 1   
    10     6    27 1   
    11     7     8 1   
    12     7    13 1   
    13     7    28 1   
    14     8     9 1   
    15     8    10 1   
    16     8    29 1   
    17     9    30 1   
    18    10    11 1   
    19    10    12 1   
    20    10    31 1   
    21    11    32 1   
    22    12    13 1   
    23    12    14 1   
    24    12    33 1   
    25    14    15 1   
    26    14    18 1   
    27    15    16 ar  
    28    15    19 ar  
    29    16    17 1   
    30    16    22 ar  
    31    17    18 2   
    32    18    34 1   
    33    19    20 ar  
    34    20    21 ar  
    35    20    35 1   
    36    21    22 ar  
    37    22    23 1   
    38    23    36 1   
    39    23    37 1   
@<TRIPOS>SUBSTRUCTURE
     1 ND7         1 TEMP              0 ****  ****    0 ROOT
