@<TRIPOS>MOLECULE
ND7
   37    39     1     0     0
SMALL
No Charge or Current Charge


@<TRIPOS>ATOM
      1 O1A         -5.2950     1.6210    -1.4520 o          1 ND7      -0.811500
      2 PA          -4.6780     0.9690    -0.2720 p5         1 ND7       1.330700
      3 O2A         -4.4690     1.8180     0.9210 o          1 ND7      -0.811500
      4 N3A         -5.7360    -0.1030     0.2310 n8         1 ND7      -1.106300
      5 O5          -3.4960    -0.0500    -0.6190 os         1 ND7      -0.579400
      6 C5          -2.6120    -0.5040     0.4190 c3         1 ND7       0.227600
      7 C4          -1.4430    -1.2920    -0.2260 c5         1 ND7       0.155300
      8 C3          -0.4950    -1.9940     0.7910 c5         1 ND7       0.083300
      9 O3          -1.0440    -3.1990     1.3550 oh         1 ND7      -0.706000
     10 C2           0.7040    -2.3000    -0.1480 c5         1 ND7       0.095300
     11 O2           0.4000    -3.4370    -0.9730 oh         1 ND7      -0.706000
     12 C1           0.7850    -0.9440    -0.9400 c5         1 ND7       0.314300
     13 O4          -0.5620    -0.4040    -0.9600 os         1 ND7      -0.409000
     14 N9           1.6830     0.0540    -0.3590 na         1 ND7      -0.303300
     15 C9           3.0520     0.0270    -0.3020 ca         1 ND7       0.107500
     16 C7           3.4560     1.1710     0.3370 ca         1 ND7      -0.092600
     17 N7           2.3870     1.9790     0.7080 nc         1 ND7      -0.571100
     18 C8           1.3310     1.2670     0.2650 cd         1 ND7       0.437700
     19 N3           3.9330    -0.8890    -0.7520 nb         1 ND7      -0.214000
     20 C10          5.2410    -0.6110    -0.5360 ca         1 ND7       0.165900
     21 N1           5.7430     0.4840     0.0820 nb         1 ND7      -0.315000
     22 C6           4.8420     1.3750     0.5220 ca         1 ND7       0.443900
     23 N6           5.3460     2.4770     1.1380 nv         1 ND7      -1.071900
     24 H2          -5.1420    -0.9170     0.1140 hn         1 ND7       0.407500
     25 H3          -5.6390     0.1430     1.2120 hn         1 ND7       0.407500
     26 H4          -2.2020     0.3390     0.9910 h1         1 ND7       0.016700
     27 H5          -3.1460    -1.1640     1.1140 h1         1 ND7       0.016700
     28 H6          -1.8660    -2.0230    -0.9280 h1         1 ND7       0.081700
     29 H7          -0.2010    -1.2910     1.5850 h1         1 ND7       0.057700
     30 H8          -0.6270    -3.3320     2.2410 ho         1 ND7       0.506000
     31 H9           1.6250    -2.4800     0.4250 h1         1 ND7       0.066700
     32 H10         -0.2400    -3.9600    -0.4290 ho         1 ND7       0.519000
     33 H11          1.1440    -1.1180    -1.9620 h2         1 ND7       0.114700
     34 H12          0.2940     1.5660     0.3650 h5         1 ND7       0.099800
     35 H13          5.9610    -1.3430    -0.8960 h5         1 ND7       0.037100
     36 H14          4.7040     3.2540     1.2740 hn         1 ND7       0.502000
     37 H15          6.3210     2.7140     0.9770 hn         1 ND7       0.502000
@<TRIPOS>BOND
     1     1     2 1   
     2     2     3 1   
     3     2     4 1   
     4     2     5 1   
     5     4    24 1   
     6     4    25 1   
     7     5     6 1   
     8     6     7 1   
     9     6    26 1   
    10     6    27 1   
    11     7     8 1   
    12     7    13 1   
    13     7    28 1   
    14     8     9 1   
    15     8    10 1   
    16     8    29 1   
    17     9    30 1   
    18    10    11 1   
    19    10    12 1   
    20    10    31 1   
    21    11    32 1   
    22    12    13 1   
    23    12    14 1   
    24    12    33 1   
    25    14    15 1   
    26    14    18 1   
    27    15    16 ar  
    28    15    19 ar  
    29    16    17 1   
    30    16    22 ar  
    31    17    18 2   
    32    18    34 1   
    33    19    20 ar  
    34    20    21 ar  
    35    20    35 1   
    36    21    22 ar  
    37    22    23 1   
    38    23    36 1   
    39    23    37 1   
@<TRIPOS>SUBSTRUCTURE
     1 ND7         1 TEMP              0 ****  ****    0 ROOT
