@<TRIPOS>MOLECULE
ND8
   17    18     1     0     0
SMALL
No Charge or Current Charge


@<TRIPOS>ATOM
      1 C01         19.7380    10.3230    28.2360 ca         1 ND8      -0.136000
      2 C02         19.3300     9.2070    27.4730 ca         1 ND8      -0.141000
      3 C03         18.5640     9.3890    26.3040 ca         1 ND8      -0.080000
      4 C04         18.2200    10.6950    25.9200 ca         1 ND8      -0.200000
      5 C05         18.6190    11.7870    26.6650 ca         1 ND8      -0.058800
      6 C06         19.3820    11.6250    27.8320 ca         1 ND8      -0.089000
      7 C07         18.1690    13.0410    26.1100 cc         1 ND8      -0.221200
      8 C08         17.4310    12.8550    24.9420 cd         1 ND8      -0.055600
      9 C09         16.8350    13.9710    24.1440 c          1 ND8       0.730200
     10 O10         16.2030    13.6980    23.1310 o          1 ND8      -0.704500
     11 O11         16.9960    15.1240    24.5260 o          1 ND8      -0.704500
     12 S12         17.2650    11.1300    24.4860 ss         1 ND8       0.068400
     13 H1          20.3290    10.1770    29.1370 ha         1 ND8       0.089000
     14 H2          19.6070     8.2040    27.7880 ha         1 ND8       0.089000
     15 H3          18.2460     8.5340    25.7120 ha         1 ND8       0.103000
     16 H4          19.6930    12.4890    28.4150 ha         1 ND8       0.101000
     17 H5          18.3720    14.0190    26.5380 ha         1 ND8       0.208000
@<TRIPOS>BOND
     1     1     2 ar  
     2     1     6 ar  
     3     1    13 1   
     4     2     3 ar  
     5     2    14 1   
     6     3     4 ar  
     7     3    15 1   
     8     4     5 ar  
     9     4    12 1   
    10     5     6 ar  
    11     5     7 1   
    12     6    16 1   
    13     7     8 2   
    14     7    17 1   
    15     8     9 1   
    16     8    12 1   
    17     9    10 1   
    18     9    11 1   
@<TRIPOS>SUBSTRUCTURE
     1 ND8         1 TEMP              0 ****  ****    0 ROOT
