@<TRIPOS>MOLECULE
ND8
   17    18     1     0     0
SMALL
bcc


@<TRIPOS>ATOM
      1 C01         19.7250    10.3140    28.2120 ca         1 ND8      -0.154000
      2 C02         19.3060     9.2260    27.4340 ca         1 ND8      -0.159000
      3 C03         18.5530     9.4190    26.2910 ca         1 ND8      -0.098000
      4 C04         18.2210    10.7230    25.9290 ca         1 ND8      -0.073100
      5 C05         18.6340    11.8280    26.6990 ca         1 ND8      -0.058800
      6 C06         19.3950    11.6050    27.8530 ca         1 ND8      -0.107000
      7 C07         18.1820    13.0660    26.1370 cc         1 ND8      -0.171200
      8 C08         17.4650    12.9030    25.0010 cd         1 ND8      -0.055600
      9 C09         16.8190    13.9390    24.1130 c          1 ND8       0.940800
     10 O10         16.2170    13.4770    23.1250 o          1 ND8      -0.809800
     11 O11         16.9560    15.1240    24.4570 o          1 ND8      -0.809800
     12 S12         17.2990    11.2320    24.5520 ss         1 ND8      -0.058500
     13 H1          20.3130    10.1370    29.1030 ha         1 ND8       0.107000
     14 H2          19.5730     8.2200    27.7320 ha         1 ND8       0.107000
     15 H3          18.2300     8.5760    25.6940 ha         1 ND8       0.121000
     16 H4          19.7210    12.4440    28.4560 ha         1 ND8       0.119000
     17 H5          18.3920    14.0340    26.5720 ha         1 ND8       0.158000
@<TRIPOS>BOND
     1     1     2 ar  
     2     1     6 ar  
     3     1    13 1   
     4     2     3 ar  
     5     2    14 1   
     6     3     4 ar  
     7     3    15 1   
     8     4     5 ar  
     9     4    12 1   
    10     5     6 ar  
    11     5     7 1   
    12     6    16 1   
    13     7     8 2   
    14     7    17 1   
    15     8     9 1   
    16     8    12 1   
    17     9    10 1   
    18     9    11 1   
@<TRIPOS>SUBSTRUCTURE
     1 ND8         1 TEMP              0 ****  ****    0 ROOT
