@<TRIPOS>MOLECULE
ND9
   58    60     1     0     0
SMALL
abcg2


@<TRIPOS>ATOM
      1 C15        -18.9050   -24.7990    -1.3360 c3         1 ND9       0.111000
      2 C12        -15.7870   -22.5430    -1.7520 c6         1 ND9       0.096500
      3 C11        -15.6690   -20.5620    -0.3470 c          1 ND9       0.587100
      4 C10        -17.1850   -21.3380     2.1090 ca         1 ND9      -0.168000
      5 C13        -16.6230   -23.7560    -1.3570 c6         1 ND9      -0.093400
      6 C14        -18.0750   -23.6080    -1.8160 c6         1 ND9      -0.087700
      7 C9         -17.7330   -22.3130     2.9400 ca         1 ND9      -0.079000
      8 C6         -19.3860   -20.3890     1.8260 ca         1 ND9      -0.168000
      9 C7         -19.9170   -21.3640     2.6570 ca         1 ND9      -0.079000
     10 C8         -19.0930   -22.3390     3.2170 ca         1 ND9      -0.149000
     11 C3         -15.4300   -18.6600     1.3650 c6         1 ND9      -0.071400
     12 C2         -14.1030   -18.0230     0.9430 c6         1 ND9      -0.089400
     13 C1         -14.2560   -17.0170    -0.2010 c6         1 ND9       0.152500
     14 C4         -16.2670   -19.2400     0.2120 c6         1 ND9       0.124000
     15 C5         -18.0180   -20.3750     1.5410 ca         1 ND9       0.138100
     16 N1         -12.9810   -16.4620    -0.6750 n8         1 ND9      -0.990200
     17 O1         -17.6310   -19.4010     0.6660 os         1 ND9      -0.371100
     18 O2         -14.5280   -20.8800    -0.0020 o          1 ND9      -0.617100
     19 N2         -16.3780   -21.3100    -1.2220 n          1 ND9      -0.402800
     20 N3         -20.3030   -24.7290    -1.7380 ns         1 ND9      -0.491900
     21 C16        -20.7480   -25.1540    -2.9200 c          1 ND9       0.589100
     22 O3         -20.0490   -25.6900    -3.7810 o          1 ND9      -0.607100
     23 C17        -22.2250   -24.9870    -3.2480 c3         1 ND9       0.038600
     24 C18        -18.6430   -22.2770    -1.3210 c6         1 ND9      -0.093400
     25 C19        -17.7470   -21.0990    -1.7020 c6         1 ND9       0.096500
     26 C20        -16.3660   -18.1920    -0.9120 c6         1 ND9      -0.071400
     27 C21        -15.0050   -17.6680    -1.3590 c6         1 ND9      -0.089400
     28 H1         -18.8840   -24.8490    -0.2460 h1         1 ND9       0.060200
     29 H2         -18.4830   -25.7260    -1.7260 h1         1 ND9       0.060200
     30 H3         -14.7730   -22.6260    -1.3760 h1         1 ND9       0.062200
     31 H4         -15.7460   -22.4540    -2.8420 h1         1 ND9       0.062200
     32 H6         -16.5930   -23.8690    -0.2690 hc         1 ND9       0.052950
     33 H7         -16.1770   -24.6540    -1.7920 hc         1 ND9       0.052950
     34 H8         -18.0900   -23.6030    -2.9120 hc         1 ND9       0.064700
     35 H9         -17.0770   -23.0610     3.3680 ha         1 ND9       0.114500
     36 H10        -20.0190   -19.6380     1.3720 ha         1 ND9       0.130000
     37 H11        -20.9800   -21.3660     2.8620 ha         1 ND9       0.114500
     38 H12        -19.5080   -23.1040     3.8610 ha         1 ND9       0.116000
     39 H13        -16.0650   -17.8940     1.8180 hc         1 ND9       0.057450
     40 H14        -15.2470   -19.4160     2.1250 hc         1 ND9       0.057450
     41 H15        -13.4060   -18.8000     0.6250 hc         1 ND9       0.054950
     42 H16        -13.6620   -17.5230     1.8100 hc         1 ND9       0.054950
     43 H17        -14.8580   -16.1730     0.1550 h1         1 ND9       0.057700
     44 H18        -12.4850   -16.0410     0.1050 hn         1 ND9       0.393000
     45 H19        -12.3880   -17.2230    -0.9980 hn         1 ND9       0.393000
     46 H21        -20.9590   -24.2800    -1.1180 hn         1 ND9       0.329500
     47 H22        -22.3110   -24.3970    -4.1560 h1         1 ND9       0.096200
     48 H23        -22.6550   -25.9720    -3.4070 h1         1 ND9       0.096200
     49 CL1        -23.2340   -24.1680    -1.9900 cl         1 ND9      -0.282000
     50 H25        -19.6360   -22.1040    -1.7420 hc         1 ND9       0.052950
     51 H26        -18.7520   -22.3090    -0.2350 hc         1 ND9       0.052950
     52 H27        -17.7020   -21.0090    -2.7930 h1         1 ND9       0.062200
     53 H28        -18.1540   -20.1810    -1.3050 h1         1 ND9       0.062200
     54 H29        -16.9600   -17.3660    -0.5110 hc         1 ND9       0.057450
     55 H30        -16.9120   -18.5990    -1.7610 hc         1 ND9       0.057450
     56 H31        -14.3970   -18.4840    -1.7650 hc         1 ND9       0.054950
     57 H32        -15.1450   -16.9440    -2.1640 hc         1 ND9       0.054950
     58 H5         -16.1250   -21.3530     1.9120 ha         1 ND9       0.130000
@<TRIPOS>BOND
     1     1     6 1   
     2     1    20 1   
     3     1    28 1   
     4     1    29 1   
     5     2     5 1   
     6     2    19 1   
     7     2    30 1   
     8     2    31 1   
     9     3    14 1   
    10     3    18 2   
    11     3    19 1   
    12     4     7 ar  
    13     4    15 ar  
    14     4    58 1   
    15     5     6 1   
    16     5    32 1   
    17     5    33 1   
    18     6    24 1   
    19     6    34 1   
    20     7    10 ar  
    21     7    35 1   
    22     8     9 ar  
    23     8    15 ar  
    24     8    36 1   
    25     9    10 ar  
    26     9    37 1   
    27    10    38 1   
    28    11    12 1   
    29    11    14 1   
    30    11    39 1   
    31    11    40 1   
    32    12    13 1   
    33    12    41 1   
    34    12    42 1   
    35    13    16 1   
    36    13    27 1   
    37    13    43 1   
    38    14    17 1   
    39    14    26 1   
    40    15    17 1   
    41    16    44 1   
    42    16    45 1   
    43    19    25 1   
    44    20    21 1   
    45    20    46 1   
    46    21    22 2   
    47    21    23 1   
    48    23    47 1   
    49    23    48 1   
    50    23    49 1   
    51    24    25 1   
    52    24    50 1   
    53    24    51 1   
    54    25    52 1   
    55    25    53 1   
    56    26    27 1   
    57    26    54 1   
    58    26    55 1   
    59    27    56 1   
    60    27    57 1   
@<TRIPOS>SUBSTRUCTURE
     1 ND9         1 TEMP              0 ****  ****    0 ROOT
