@<TRIPOS>MOLECULE
ND9
   58    60     1     0     0
SMALL
No Charge or Current Charge


@<TRIPOS>ATOM
      1 C15        -18.6340   -24.9140    -1.6260 c3         1 ND9       0.111000
      2 C12        -15.7800   -22.2120    -1.8950 c6         1 ND9       0.096500
      3 C11        -15.9420   -20.5760     0.0200 c          1 ND9       0.587100
      4 C10        -17.3630   -20.9610     2.8160 ca         1 ND9      -0.168000
      5 C13        -16.4470   -23.5760    -1.6010 c6         1 ND9      -0.093400
      6 C14        -17.9580   -23.5490    -1.9490 c6         1 ND9      -0.087700
      7 C9         -17.9430   -22.0210     3.5360 ca         1 ND9      -0.079000
      8 C6         -19.5250   -20.4560     1.8310 ca         1 ND9      -0.168000
      9 C7         -20.1070   -21.5150     2.5490 ca         1 ND9      -0.079000
     10 C8         -19.3130   -22.3010     3.3990 ca         1 ND9      -0.149000
     11 C3         -15.2760   -18.4870     1.4620 c6         1 ND9      -0.071400
     12 C2         -13.9320   -18.2040     0.7340 c6         1 ND9      -0.089400
     13 C1         -14.1400   -17.2780    -0.4870 c6         1 ND9       0.152500
     14 C4         -16.3630   -19.1270     0.5250 c6         1 ND9       0.124000
     15 C5         -18.1510   -20.1850     1.9410 ca         1 ND9       0.138100
     16 N1         -12.8700   -17.0760    -1.2070 n8         1 ND9      -0.990200
     17 O1         -17.6590   -19.1260     1.1990 os         1 ND9      -0.371100
     18 O2         -15.1980   -21.2880     0.6900 o          1 ND9      -0.617100
     19 N2         -16.4640   -21.0930    -1.1930 n          1 ND9      -0.402800
     20 N3         -20.0620   -24.9480    -1.9580 ns         1 ND9      -0.491900
     21 C16        -20.5730   -25.0560    -3.2340 c          1 ND9       0.589100
     22 O3         -19.8550   -25.1880    -4.2170 o          1 ND9      -0.607100
     23 C17        -22.1030   -24.9910    -3.3260 c3         1 ND9       0.038600
     24 C18        -18.6370   -22.3610    -1.2160 c6         1 ND9      -0.093400
     25 C19        -17.9180   -21.0230    -1.5130 c6         1 ND9       0.096500
     26 C20        -16.5370   -18.1240    -0.6730 c6         1 ND9      -0.071400
     27 C21        -15.2120   -17.8600    -1.4370 c6         1 ND9      -0.089400
     28 H1         -18.5210   -25.1250    -0.5540 h1         1 ND9       0.060200
     29 H2         -18.1210   -25.7110    -2.1810 h1         1 ND9       0.060200
     30 H3         -14.7190   -22.2490    -1.6100 h1         1 ND9       0.062200
     31 H4         -15.8110   -22.0190    -2.9770 h1         1 ND9       0.062200
     32 H6         -16.3120   -23.8240    -0.5390 hc         1 ND9       0.052950
     33 H7         -15.9400   -24.3640    -2.1740 hc         1 ND9       0.052950
     34 H8         -18.0590   -23.3960    -3.0330 hc         1 ND9       0.064700
     35 H9         -17.3300   -22.6230     4.2050 ha         1 ND9       0.114500
     36 H10        -20.1410   -19.8480     1.1730 ha         1 ND9       0.130000
     37 H11        -21.1700   -21.7240     2.4480 ha         1 ND9       0.114500
     38 H12        -19.7610   -23.1220     3.9570 ha         1 ND9       0.116000
     39 H13        -15.6640   -17.5470     1.8790 hc         1 ND9       0.057450
     40 H14        -15.0720   -19.1270     2.3270 hc         1 ND9       0.057450
     41 H15        -13.4710   -19.1500     0.4190 hc         1 ND9       0.054950
     42 H16        -13.2300   -17.7370     1.4390 hc         1 ND9       0.054950
     43 H17        -14.4820   -16.2930    -0.1310 h1         1 ND9       0.057700
     44 H18        -12.1690   -16.7190    -0.5470 hn         1 ND9       0.393000
     45 H19        -12.4960   -17.9910    -1.4820 hn         1 ND9       0.393000
     46 H21        -20.7340   -24.8260    -1.2090 hn         1 ND9       0.329500
     47 H22        -22.4050   -25.1880    -4.3610 h1         1 ND9       0.096200
     48 H23        -22.5290   -25.7590    -2.6700 h1         1 ND9       0.096200
     49 Cl1        -22.7870   -23.3690    -2.8260 cl         1 ND9      -0.282000
     50 H25        -19.6910   -22.2760    -1.5130 hc         1 ND9       0.052950
     51 H26        -18.6310   -22.5420    -0.1320 hc         1 ND9       0.052950
     52 H27        -18.0370   -20.7710    -2.5770 h1         1 ND9       0.062200
     53 H28        -18.4160   -20.2360    -0.9360 h1         1 ND9       0.062200
     54 H29        -16.9150   -17.1670    -0.2870 hc         1 ND9       0.057450
     55 H30        -17.2990   -18.4570    -1.3850 hc         1 ND9       0.057450
     56 H31        -14.8520   -18.7890    -1.9000 hc         1 ND9       0.054950
     57 H32        -15.4000   -17.1560    -2.2590 hc         1 ND9       0.054950
     58 H5         -16.3090   -20.7590     2.9560 ha         1 ND9       0.130000
@<TRIPOS>BOND
     1     1     6 1   
     2     1    20 1   
     3     1    28 1   
     4     1    29 1   
     5     2     5 1   
     6     2    19 1   
     7     2    30 1   
     8     2    31 1   
     9     3    14 1   
    10     3    18 2   
    11     3    19 1   
    12     4     7 ar  
    13     4    15 ar  
    14     4    58 1   
    15     5     6 1   
    16     5    32 1   
    17     5    33 1   
    18     6    24 1   
    19     6    34 1   
    20     7    10 ar  
    21     7    35 1   
    22     8     9 ar  
    23     8    15 ar  
    24     8    36 1   
    25     9    10 ar  
    26     9    37 1   
    27    10    38 1   
    28    11    12 1   
    29    11    14 1   
    30    11    39 1   
    31    11    40 1   
    32    12    13 1   
    33    12    41 1   
    34    12    42 1   
    35    13    16 1   
    36    13    27 1   
    37    13    43 1   
    38    14    17 1   
    39    14    26 1   
    40    15    17 1   
    41    16    44 1   
    42    16    45 1   
    43    19    25 1   
    44    20    21 1   
    45    20    46 1   
    46    21    22 2   
    47    21    23 1   
    48    23    47 1   
    49    23    48 1   
    50    23    49 1   
    51    24    25 1   
    52    24    50 1   
    53    24    51 1   
    54    25    52 1   
    55    25    53 1   
    56    26    27 1   
    57    26    54 1   
    58    26    55 1   
    59    27    56 1   
    60    27    57 1   
@<TRIPOS>SUBSTRUCTURE
     1 ND9         1 TEMP              0 ****  ****    0 ROOT
