@<TRIPOS>MOLECULE
NDA
   71    75     1     0     0
SMALL
bcc


@<TRIPOS>ATOM
      1 PA           0.0680    -0.3900     0.9500 p5         1 NDA       1.475800
      2 O1A         -0.2950    -0.3940    -0.5040 o          1 NDA      -0.868500
      3 O2A          1.2320    -1.2000     1.4330 o          1 NDA      -0.868500
      4 O5B         -1.2600    -0.7570     1.8490 os         1 NDA      -0.532200
      5 C5B         -1.9160    -1.9740     1.5830 c3         1 NDA       0.187400
      6 C4B         -3.3950    -1.8120     1.8810 c5         1 NDA       0.136100
      7 O4B         -3.9430    -0.7090     1.1530 os         1 NDA      -0.364600
      8 C3B         -4.1920    -3.0330     1.4470 c5         1 NDA       0.077100
      9 O3B         -5.3510    -3.1260     2.2330 oh         1 NDA      -0.587800
     10 C2B         -4.5350    -2.6540     0.0040 c5         1 NDA       0.046100
     11 O2B         -5.6550    -3.2950    -0.5290 oh         1 NDA      -0.577800
     12 C1B         -4.8090    -1.1570     0.1530 c5         1 NDA       0.270800
     13 N9A         -4.5780    -0.3950    -1.0510 na         1 NDA      -0.264000
     14 C8A         -3.3710    -0.0480    -1.6000 cc         1 NDA       0.452700
     15 N7A         -3.4920     0.6260    -2.7070 nd         1 NDA      -0.568100
     16 C5A         -4.8450     0.7310    -2.9030 ca         1 NDA      -0.216200
     17 C6A         -5.6230     1.3400    -3.9040 ca         1 NDA       0.765200
     18 N6A         -5.0860     1.9850    -4.9420 nv         1 NDA      -0.965500
     19 N1A         -6.9540     1.2730    -3.7920 nb         1 NDA      -0.847000
     20 C2A         -7.4840     0.6420    -2.7470 ca         1 NDA       0.679900
     21 N3A         -6.8630     0.0310    -1.7540 nb         1 NDA      -0.736000
     22 C4A         -5.5400     0.1050    -1.8810 ca         1 NDA       0.442800
     23 O3           0.1430     1.1430     1.5320 os         1 NDA      -0.673800
     24 PN           1.3440     2.2270     1.2900 p5         1 NDA       1.452800
     25 O1N          0.7860     3.5710     1.6280 o          1 NDA      -0.845500
     26 O2N          2.0330     1.9830    -0.0150 o          1 NDA      -0.845500
     27 O5D          2.3220     1.7220     2.5220 os         1 NDA      -0.547200
     28 C5D          3.5800     2.3420     2.6290 c3         1 NDA       0.183400
     29 C4D          4.5150     1.4450     3.4210 c5         1 NDA       0.127100
     30 O4D          4.6230     0.1330     2.8500 os         1 NDA      -0.334600
     31 C3D          5.9430     1.9620     3.4210 c5         1 NDA       0.088100
     32 O3D          6.6240     1.3930     4.5030 oh         1 NDA      -0.577800
     33 C2D          6.4560     1.3980     2.0870 c5         1 NDA       0.045100
     34 O2D          7.8350     1.1870     2.0390 oh         1 NDA      -0.599800
     35 C1D          5.7100     0.0520     2.0130 c5         1 NDA       0.232800
     36 N1N          5.2620    -0.2400     0.6120 na         1 NDA      -0.006100
     37 C2N          6.2230    -0.3660    -0.3250 ca         1 NDA      -0.099300
     38 C3N          5.9090    -0.6360    -1.6330 ca         1 NDA      -0.115300
     39 C7N          6.9890    -0.7990    -2.6660 c3         1 NDA       0.205100
     40 N7N          6.6510    -0.0740    -3.8750 n8         1 NDA      -0.884800
     41 C4N          4.5550    -0.7620    -1.9640 ca         1 NDA      -0.032000
     42 C5N          3.5920    -0.6370    -0.9880 ca         1 NDA      -0.082000
     43 C6N          3.9710    -0.3790     0.3170 ca         1 NDA       0.074700
     44 H51A        -1.7720    -2.2890     0.5420 h1         1 NDA       0.013200
     45 H52A        -1.5240    -2.7780     2.2160 h1         1 NDA       0.013200
     46 H4B         -3.5290    -1.6130     2.9490 h1         1 NDA       0.098700
     47 H3B         -3.5910    -3.9520     1.4980 h1         1 NDA       0.047700
     48 HO3A        -5.9930    -3.6650     1.7550 ho         1 NDA       0.409000
     49 H2B         -3.6490    -2.7990    -0.6260 h1         1 NDA       0.066700
     50 HO2A        -5.3850    -4.1500    -0.8780 ho         1 NDA       0.402000
     51 H1B         -5.8590    -0.9930     0.4210 h2         1 NDA       0.101700
     52 H8A         -2.4260    -0.2940    -1.1300 h5         1 NDA       0.143800
     53 H61A        -4.0930     1.9870    -5.0920 hn         1 NDA       0.442800
     54 H62A        -5.6760     2.3540    -5.6680 hn         1 NDA       0.442800
     55 H2A         -8.5690     0.6280    -2.7130 h5         1 NDA       0.029100
     56 H51N         3.5090     3.3000     3.1580 h1         1 NDA       0.021200
     57 H52N         4.0010     2.5560     1.6390 h1         1 NDA       0.021200
     58 H4D          4.1280     1.3150     4.4340 h1         1 NDA       0.125700
     59 H3D          5.9890     3.0590     3.4320 h1         1 NDA       0.066700
     60 HO3N         7.5710     1.4460     4.3250 ho         1 NDA       0.410000
     61 H2D          6.1240     2.0500     1.2710 h1         1 NDA       0.076700
     62 HO2N         8.2640     1.9900     1.7260 ho         1 NDA       0.421000
     63 H1D          6.3560    -0.7860     2.2910 h2         1 NDA       0.105700
     64 H2N          7.2440    -0.2410     0.0090 h4         1 NDA       0.169000
     65 HC71         7.0590    -1.8610    -2.9150 h1         1 NDA       0.036700
     66 HC72         7.9530    -0.5250    -2.2210 h1         1 NDA       0.036700
     67 H71N         6.7880     0.9180    -3.7310 hn         1 NDA       0.348800
     68 H72N         7.2830    -0.3450    -4.6170 hn         1 NDA       0.348800
     69 H4N          4.2770    -0.9560    -2.9910 ha         1 NDA       0.175000
     70 H5N          2.5380    -0.7290    -1.2020 ha         1 NDA       0.239000
     71 H6N          3.2460    -0.3140     1.1120 h4         1 NDA       0.286000
@<TRIPOS>BOND
     1     1     2 1   
     2     1     3 1   
     3     1     4 1   
     4     1    23 1   
     5     4     5 1   
     6     5     6 1   
     7     5    44 1   
     8     5    45 1   
     9     6     7 1   
    10     6     8 1   
    11     6    46 1   
    12     7    12 1   
    13     8     9 1   
    14     8    10 1   
    15     8    47 1   
    16     9    48 1   
    17    10    11 1   
    18    10    12 1   
    19    10    49 1   
    20    11    50 1   
    21    12    13 1   
    22    12    51 1   
    23    13    14 1   
    24    13    22 1   
    25    14    15 2   
    26    14    52 1   
    27    15    16 1   
    28    16    17 ar  
    29    16    22 ar  
    30    17    18 1   
    31    17    19 ar  
    32    18    53 1   
    33    18    54 1   
    34    19    20 ar  
    35    20    21 ar  
    36    20    55 1   
    37    21    22 ar  
    38    23    24 1   
    39    24    25 1   
    40    24    26 1   
    41    24    27 1   
    42    27    28 1   
    43    28    29 1   
    44    28    56 1   
    45    28    57 1   
    46    29    30 1   
    47    29    31 1   
    48    29    58 1   
    49    30    35 1   
    50    31    32 1   
    51    31    33 1   
    52    31    59 1   
    53    32    60 1   
    54    33    34 1   
    55    33    35 1   
    56    33    61 1   
    57    34    62 1   
    58    35    36 1   
    59    35    63 1   
    60    36    37 1   
    61    36    43 2   
    62    37    38 ar  
    63    37    64 1   
    64    38    39 1   
    65    38    41 ar  
    66    39    40 1   
    67    39    65 1   
    68    39    66 1   
    69    40    67 1   
    70    40    68 1   
    71    41    42 ar  
    72    41    69 1   
    73    42    43 ar  
    74    42    70 1   
    75    43    71 1   
@<TRIPOS>SUBSTRUCTURE
     1 NDA         1 TEMP              0 ****  ****    0 ROOT
