@<TRIPOS>MOLECULE
NDA
   71    75     1     0     0
SMALL
No Charge or Current Charge


@<TRIPOS>ATOM
      1 PA           0.1350    -1.6710     0.1820 p5         1 NDA       1.475800
      2 O1A         -0.4690    -1.5730    -1.1800 o          1 NDA      -0.868500
      3 O2A          1.5340    -2.1900     0.1440 o          1 NDA      -0.868500
      4 O5B         -0.7400    -2.6630     1.1090 os         1 NDA      -0.555400
      5 C5B         -2.1760    -2.7350     1.0460 c3         1 NDA       0.210600
      6 C4B         -2.8510    -1.4430     1.6140 c5         1 NDA       0.159300
      7 O4B         -3.1810    -0.5300     0.5300 os         1 NDA      -0.411000
      8 C3B         -4.2300    -1.7220     2.3030 c5         1 NDA       0.100300
      9 O3B         -4.6820    -0.6390     3.1290 oh         1 NDA      -0.710000
     10 C2B         -5.1280    -1.8670     1.0430 c5         1 NDA       0.069300
     11 O2B         -6.5280    -1.7580     1.3710 oh         1 NDA      -0.700000
     12 C1B         -4.5780    -0.6760     0.1780 c5         1 NDA       0.323300
     13 N9A         -4.7100    -0.7540    -1.2770 na         1 NDA      -0.293300
     14 C8A         -4.6810    -1.9210    -2.0520 cc         1 NDA       0.452700
     15 N7A         -4.8950    -1.6490    -3.3570 nd         1 NDA      -0.568100
     16 C5A         -5.0530    -0.2600    -3.3750 ca         1 NDA      -0.085600
     17 C6A         -5.3050     0.6020    -4.4640 ca         1 NDA       0.436900
     18 N6A         -5.4370     0.1570    -5.7420 nv         1 NDA      -1.075900
     19 N1A         -5.4420     1.9250    -4.2850 nb         1 NDA      -0.321000
     20 C2A         -5.3170     2.3690    -3.0100 ca         1 NDA       0.153900
     21 N3A         -5.0740     1.6180    -1.9100 nb         1 NDA      -0.210000
     22 C4A         -4.9440     0.2930    -2.1240 ca         1 NDA       0.114500
     23 O3          -0.0380    -0.3730     1.0560 os         1 NDA      -0.673800
     24 PN           1.0000     0.7690     0.7420 p5         1 NDA       1.452800
     25 O1N          0.3960     2.0780     1.1310 o          1 NDA      -0.845500
     26 O2N          1.5190     0.8220    -0.6550 o          1 NDA      -0.845500
     27 O5D          2.1430     0.3460     1.7950 os         1 NDA      -0.570400
     28 C5D          3.0270     1.3470     2.3100 c3         1 NDA       0.206600
     29 C4D          3.9720     0.6910     3.3630 c5         1 NDA       0.150300
     30 O4D          4.6510    -0.4730     2.8290 os         1 NDA      -0.381000
     31 C3D          5.1570     1.5920     3.8170 c5         1 NDA       0.111300
     32 O3D          5.7950     1.1120     5.0060 oh         1 NDA      -0.700000
     33 C2D          6.1300     1.4280     2.6050 c5         1 NDA       0.068300
     34 O2D          7.4990     1.6270     3.0240 oh         1 NDA      -0.722000
     35 C1D          5.8270    -0.0380     2.0980 c5         1 NDA       0.285300
     36 N1N          5.6490    -0.1920     0.6390 na         1 NDA       0.015300
     37 C2N          6.5990     0.3160    -0.2650 ca         1 NDA      -0.132000
     38 C3N          6.4310     0.2620    -1.6640 ca         1 NDA      -0.115300
     39 C7N          7.4830     0.8510    -2.5910 c3         1 NDA       0.205100
     40 N7N          7.0380     2.1410    -3.1420 n8         1 NDA      -0.995200
     41 C4N          5.2870    -0.3550    -2.1940 ca         1 NDA      -0.014000
     42 C5N          4.3500    -0.9270    -1.3220 ca         1 NDA      -0.064000
     43 C6N          4.5520    -0.8630     0.0680 ca         1 NDA       0.092700
     44 H51A        -2.5140    -2.9140     0.0180 h1         1 NDA       0.013200
     45 H52A        -2.5080    -3.5930     1.6450 h1         1 NDA       0.013200
     46 H4B         -2.1610    -0.9580     2.3170 h1         1 NDA       0.098700
     47 H3B         -4.2060    -2.6540     2.8860 h1         1 NDA       0.047700
     48 HO3A        -5.6580    -0.6050     2.9790 ho         1 NDA       0.508000
     49 H2B         -4.9290    -2.8280     0.5500 h1         1 NDA       0.066700
     50 HO2A        -6.8640    -2.6660     1.5660 ho         1 NDA       0.501000
     51 H1B         -5.1040     0.2410     0.4750 h2         1 NDA       0.101700
     52 H8A         -4.5060    -2.9040    -1.6290 h5         1 NDA       0.143800
     53 H61A        -5.5570    -0.8460    -5.8660 hn         1 NDA       0.498000
     54 H62A        -5.8990     0.7600    -6.4170 hn         1 NDA       0.498000
     55 H2A         -5.4240     3.4410    -2.8540 h5         1 NDA       0.029100
     56 H51N         2.4650     2.1510     2.8020 h1         1 NDA       0.021200
     57 H52N         3.6130     1.7910     1.4960 h1         1 NDA       0.021200
     58 H4D          3.3560     0.3850     4.2190 h1         1 NDA       0.125700
     59 H3D          4.8430     2.6380     3.9450 h1         1 NDA       0.066700
     60 HO3N         6.7540     1.1150     4.7560 ho         1 NDA       0.509000
     61 H2D          5.8650     2.1490     1.8170 h1         1 NDA       0.076700
     62 HO2N         7.7580     2.5530     2.7890 ho         1 NDA       0.520000
     63 H1D          6.6630    -0.6990     2.3550 h2         1 NDA       0.105700
     64 H2N          7.4900     0.7770     0.1650 h4         1 NDA       0.151000
     65 HC71         7.6770     0.1570    -3.4210 h1         1 NDA       0.036700
     66 HC72         8.4240     1.0020    -2.0440 h1         1 NDA       0.036700
     67 H71N         6.9160     2.8030    -2.3670 hn         1 NDA       0.404000
     68 H72N         7.8040     2.5500    -3.6920 hn         1 NDA       0.404000
     69 H4N          5.1330    -0.4030    -3.2710 ha         1 NDA       0.157000
     70 H5N          3.4640    -1.4230    -1.7150 ha         1 NDA       0.221000
     71 H6N          3.8310    -1.3290     0.7410 h4         1 NDA       0.268000
@<TRIPOS>BOND
     1     1     2 1   
     2     1     3 1   
     3     1     4 1   
     4     1    23 1   
     5     4     5 1   
     6     5     6 1   
     7     5    44 1   
     8     5    45 1   
     9     6     7 1   
    10     6     8 1   
    11     6    46 1   
    12     7    12 1   
    13     8     9 1   
    14     8    10 1   
    15     8    47 1   
    16     9    48 1   
    17    10    11 1   
    18    10    12 1   
    19    10    49 1   
    20    11    50 1   
    21    12    13 1   
    22    12    51 1   
    23    13    14 1   
    24    13    22 1   
    25    14    15 2   
    26    14    52 1   
    27    15    16 1   
    28    16    17 ar  
    29    16    22 ar  
    30    17    18 1   
    31    17    19 ar  
    32    18    53 1   
    33    18    54 1   
    34    19    20 ar  
    35    20    21 ar  
    36    20    55 1   
    37    21    22 ar  
    38    23    24 1   
    39    24    25 1   
    40    24    26 1   
    41    24    27 1   
    42    27    28 1   
    43    28    29 1   
    44    28    56 1   
    45    28    57 1   
    46    29    30 1   
    47    29    31 1   
    48    29    58 1   
    49    30    35 1   
    50    31    32 1   
    51    31    33 1   
    52    31    59 1   
    53    32    60 1   
    54    33    34 1   
    55    33    35 1   
    56    33    61 1   
    57    34    62 1   
    58    35    36 1   
    59    35    63 1   
    60    36    37 1   
    61    36    43 2   
    62    37    38 ar  
    63    37    64 1   
    64    38    39 1   
    65    38    41 ar  
    66    39    40 1   
    67    39    65 1   
    68    39    66 1   
    69    40    67 1   
    70    40    68 1   
    71    41    42 ar  
    72    41    69 1   
    73    42    43 ar  
    74    42    70 1   
    75    43    71 1   
@<TRIPOS>SUBSTRUCTURE
     1 NDA         1 TEMP              0 ****  ****    0 ROOT
