@<TRIPOS>MOLECULE
NDB
   30    29     1     0     0
SMALL
No Charge or Current Charge


@<TRIPOS>ATOM
      1 CAA         -2.2040     1.4350     0.1910 c3         1 NDB       0.078400
      2 CAB         -2.0990    -0.6640     1.5680 c3         1 NDB       0.078400
      3 OAC          3.2900     1.4080    -0.2420 o          1 NDB      -0.674533
      4 OAD          4.2870    -0.6450    -1.1950 o          1 NDB      -0.674533
      5 OAE         -5.1780     0.9100    -0.3980 oh         1 NDB      -0.665000
      6 OAF          3.3950    -0.6610     1.1120 o          1 NDB      -0.674533
      7 CAG         -4.7500    -0.4350    -0.1260 c3         1 NDB       0.147600
      8 CAH          0.5330    -0.0620    -0.0130 c3         1 NDB      -0.053400
      9 CAI         -3.3090    -0.6750    -0.6490 c3         1 NDB       0.093600
     10 CAJ         -0.8210    -0.5140    -0.5980 c3         1 NDB       0.097600
     11 CAK          1.7280    -0.5600    -0.8660 c3         1 NDB      -0.363400
     12 NAL         -2.1070    -0.0990     0.1370 n4         1 NDB      -0.498000
     13 SAM          3.3470    -0.0600    -0.2290 s6         1 NDB       1.311600
     14 HAA         -1.3480     1.8350     0.7370 hx         1 NDB       0.094533
     15 HAAA        -2.2130     1.8300    -0.8260 hx         1 NDB       0.094533
     16 HAAB        -3.1260     1.7190     0.7020 hx         1 NDB       0.094533
     17 HAB         -3.0200    -0.3740     2.0780 hx         1 NDB       0.094533
     18 HABA        -2.0280    -1.7530     1.5250 hx         1 NDB       0.094533
     19 HABB        -1.2430    -0.2610     2.1120 hx         1 NDB       0.094533
     20 HOAE        -6.1090     0.9870    -0.0880 ho         1 NDB       0.474000
     21 HAG         -4.7960    -0.6530     0.9490 h1         1 NDB       0.049700
     22 HAGA        -5.4170    -1.1450    -0.6320 h1         1 NDB       0.049700
     23 HAH          0.5570     1.0330     0.0450 hc         1 NDB       0.073700
     24 HAHA         0.6320    -0.4430     1.0110 hc         1 NDB       0.073700
     25 HAI         -3.1580    -1.7560    -0.6960 hx         1 NDB       0.097700
     26 HAIA        -3.2520    -0.2940    -1.6700 hx         1 NDB       0.097700
     27 HAJ         -0.8960    -0.1310    -1.6180 hx         1 NDB       0.080700
     28 HAJA        -0.8210    -1.6050    -0.6550 hx         1 NDB       0.080700
     29 HAK          1.7420    -1.6540    -0.9070 h1         1 NDB       0.076700
     30 HAKA         1.6660    -0.1610    -1.8840 h1         1 NDB       0.076700
@<TRIPOS>BOND
     1     1    12 1   
     2     1    14 1   
     3     1    15 1   
     4     1    16 1   
     5     2    12 1   
     6     2    17 1   
     7     2    18 1   
     8     2    19 1   
     9     3    13 1   
    10     4    13 1   
    11     5     7 1   
    12     5    20 1   
    13     6    13 1   
    14     7     9 1   
    15     7    21 1   
    16     7    22 1   
    17     8    10 1   
    18     8    11 1   
    19     8    23 1   
    20     8    24 1   
    21     9    12 1   
    22     9    25 1   
    23     9    26 1   
    24    10    12 1   
    25    10    27 1   
    26    10    28 1   
    27    11    13 1   
    28    11    29 1   
    29    11    30 1   
@<TRIPOS>SUBSTRUCTURE
     1 NDB         1 TEMP              0 ****  ****    0 ROOT
