@<TRIPOS>MOLECULE
NDB
   30    29     1     0     0
SMALL
bcc


@<TRIPOS>ATOM
      1 CAA         -2.1110     1.4570     0.1350 c3         1 NDB       0.106600
      2 CAB         -2.1840    -0.5790     1.4660 c3         1 NDB       0.106600
      3 OAC          3.2390     1.3800    -0.4120 o          1 NDB      -0.674533
      4 OAD          4.2010    -0.8060    -1.0240 o          1 NDB      -0.674533
      5 OAE         -5.0780     0.7500     0.1170 oh         1 NDB      -0.602800
      6 OAF          3.2730    -0.4530     1.2320 o          1 NDB      -0.674533
      7 CAG         -4.6230    -0.5530    -0.1420 c3         1 NDB       0.124400
      8 CAH          0.4610     0.0330    -0.0460 c3         1 NDB      -0.053400
      9 CAI         -3.2460    -0.5420    -0.7640 c3         1 NDB       0.121800
     10 CAJ         -0.8430    -0.5220    -0.5900 c3         1 NDB       0.125800
     11 CAK          1.6100    -0.6420    -0.7810 c3         1 NDB      -0.252600
     12 NAL         -2.1020    -0.0330     0.0850 n4         1 NDB      -0.610800
     13 SAM          3.2210    -0.0800    -0.1950 s6         1 NDB       1.200800
     14 HAA         -1.3230     1.8000     0.7970 hx         1 NDB       0.094533
     15 HAAA        -1.9420     1.8450    -0.8670 hx         1 NDB       0.094533
     16 HAAB        -3.0710     1.7950     0.5060 hx         1 NDB       0.094533
     17 HAB         -3.0450    -0.1580     1.9750 hx         1 NDB       0.094533
     18 HABA        -2.2680    -1.6620     1.4220 hx         1 NDB       0.094533
     19 HABB        -1.2880    -0.3050     2.0140 hx         1 NDB       0.094533
     20 HOAE        -5.9090     0.6910     0.5990 ho         1 NDB       0.435000
     21 HAG         -4.6300    -1.1810     0.7550 h1         1 NDB       0.049700
     22 HAGA        -5.2520    -1.0670    -0.8790 h1         1 NDB       0.049700
     23 HAH          0.5260     1.1090    -0.2030 hc         1 NDB       0.073700
     24 HAHA         0.5620    -0.1590     1.0230 hc         1 NDB       0.073700
     25 HAI         -3.0020    -1.5720    -1.0220 hx         1 NDB       0.097700
     26 HAIA        -3.2330     0.0470    -1.6820 hx         1 NDB       0.097700
     27 HAJ         -0.9480    -0.2690    -1.6450 hx         1 NDB       0.080700
     28 HAJA        -0.8580    -1.6090    -0.5030 hx         1 NDB       0.080700
     29 HAK          1.5810    -1.7250    -0.6450 h1         1 NDB       0.076700
     30 HAKA         1.5630    -0.4380    -1.8530 h1         1 NDB       0.076700
@<TRIPOS>BOND
     1     1    12 1   
     2     1    14 1   
     3     1    15 1   
     4     1    16 1   
     5     2    12 1   
     6     2    17 1   
     7     2    18 1   
     8     2    19 1   
     9     3    13 1   
    10     4    13 1   
    11     5     7 1   
    12     5    20 1   
    13     6    13 1   
    14     7     9 1   
    15     7    21 1   
    16     7    22 1   
    17     8    10 1   
    18     8    11 1   
    19     8    23 1   
    20     8    24 1   
    21     9    12 1   
    22     9    25 1   
    23     9    26 1   
    24    10    12 1   
    25    10    27 1   
    26    10    28 1   
    27    11    13 1   
    28    11    29 1   
    29    11    30 1   
@<TRIPOS>SUBSTRUCTURE
     1 NDB         1 TEMP              0 ****  ****    0 ROOT
