@<TRIPOS>MOLECULE
NDC
   85    90     1     0     0
SMALL
No Charge or Current Charge


@<TRIPOS>ATOM
      1 PA          -0.0910     0.9730    -2.5280 p5         1 NDC       1.483800
      2 O1A          0.0270     1.5520    -1.1600 o          1 NDC      -0.862500
      3 O2A          1.2050     1.0230    -3.2630 o          1 NDC      -0.862500
      4 O5          -1.1870     1.8030    -3.3760 os         1 NDC      -0.575400
      5 C5          -2.3750     2.3560    -2.7770 c3         1 NDC       0.224600
      6 C4          -3.3400     1.2480    -2.2370 c5         1 NDC       0.138300
      7 O4          -3.0700     0.9750    -0.8340 os         1 NDC      -0.402000
      8 C3          -4.8430     1.6810    -2.2430 c5         1 NDC       0.103300
      9 O3          -5.7500     0.5830    -2.0850 oh         1 NDC      -0.710000
     10 C2          -4.8610     2.5940    -0.9850 c5         1 NDC       0.063300
     11 O2          -6.2040     2.8250    -0.5140 oh         1 NDC      -0.698000
     12 C1          -3.9750     1.7410    -0.0030 c5         1 NDC       0.328300
     13 N9A         -3.2240     2.4410     1.0430 na         1 NDC      -0.282300
     14 C8A         -2.7370     3.7530     0.9780 cc         1 NDC       0.456700
     15 N7A         -2.2170     4.1450     2.1610 nd         1 NDC      -0.590100
     16 C5A         -2.3780     3.0170     2.9710 ca         1 NDC      -0.082600
     17 C6A         -2.0320     2.8270     4.3260 ca         1 NDC       0.434900
     18 N6A         -1.4670     3.8020     5.0880 nv         1 NDC      -1.083900
     19 N1A         -2.2570     1.6560     4.9430 nb         1 NDC      -0.319000
     20 C2A         -2.8360     0.6890     4.1910 ca         1 NDC       0.152900
     21 N3A         -3.2150     0.7880     2.8940 nb         1 NDC      -0.201000
     22 C4A         -2.9710     1.9750     2.3030 ca         1 NDC       0.120500
     23 OPP         -0.8030    -0.4290    -2.6200 os         1 NDC      -0.692800
     24 PN          -0.0180    -1.6370    -1.9820 p5         1 NDC       1.458800
     25 O1N          0.6760    -1.3380    -0.7010 o          1 NDC      -0.845000
     26 O2N         -0.9620    -2.7830    -1.8180 o          1 NDC      -0.845000
     27 O5B          1.0240    -1.9590    -3.1670 os         1 NDC      -0.571400
     28 C5B          1.7710    -3.1790    -3.0720 c3         1 NDC       0.205600
     29 C4B          2.8700    -3.2130    -4.1800 c5         1 NDC       0.147300
     30 O4B          3.7750    -2.0850    -4.0880 os         1 NDC      -0.378000
     31 C3B          3.8460    -4.4210    -4.0690 c5         1 NDC       0.111300
     32 O3B          4.6270    -4.6120    -5.2540 oh         1 NDC      -0.700000
     33 C2B          4.7730    -3.9390    -2.9060 c5         1 NDC       0.068300
     34 O2B          6.0820    -4.5420    -3.0160 oh         1 NDC      -0.723000
     35 C1B          4.7820    -2.3670    -3.0810 c5         1 NDC       0.284300
     36 N1N          4.5440    -1.5600    -1.8630 na         1 NDC       0.014300
     37 C2N          5.1030    -1.8980    -0.6210 ca         1 NDC      -0.106000
     38 C3N          4.7370    -1.2730     0.6010 ca         1 NDC      -0.180600
     39 C7N          5.3060    -1.8340     1.8870 c          1 NDC       0.621700
     40 O7N          4.6780    -1.9280     2.9260 o          1 NDC      -0.574100
     41 N7N          6.5540    -2.3460     1.8310 nt         1 NDC      -0.607000
     42 C4N          3.8320    -0.1750     0.5590 ca         1 NDC       0.072700
     43 C5N          3.3550     0.2400    -0.6980 ca         1 NDC      -0.052000
     44 C6N          3.7370    -0.4190    -1.8740 ca         1 NDC       0.071700
     45 CC1          3.6680     2.1290     1.7240 c          1 NDC       0.590100
     46 OC1          4.2950     2.6350     0.8020 o          1 NDC      -0.516100
     47 CC2          3.1020     2.9860     2.8680 c6         1 NDC      -0.171400
     48 CC3          1.6100     2.6780     3.1540 c6         1 NDC      -0.071400
     49 CC4          1.3740     1.1640     3.3560 c6         1 NDC      -0.067400
     50 CC5          1.8580     0.3490     2.1340 c6         1 NDC      -0.067400
     51 CC6          3.3570     0.6130     1.8030 c6         1 NDC      -0.143400
     52 H5'1        -2.1130     3.0500    -1.9680 h1         1 NDC       0.024200
     53 H5'2        -2.9100     2.9390    -3.5370 h1         1 NDC       0.024200
     54 H4          -3.2020     0.3350    -2.8310 h1         1 NDC       0.100700
     55 H3          -5.0940     2.2480    -3.1510 h1         1 NDC       0.043700
     56 HO'3        -6.4590     0.9340    -1.4920 ho         1 NDC       0.508000
     57 H2          -4.3740     3.5510    -1.2140 h1         1 NDC       0.063700
     58 HO'2        -6.5470     3.6350    -0.9640 ho         1 NDC       0.498000
     59 H1          -4.6280     1.0360     0.5270 h2         1 NDC       0.101700
     60 H8A         -2.7990     4.3610     0.0820 h5         1 NDC       0.145800
     61 H6A1        -1.1110     4.6190     4.5970 hn         1 NDC       0.495500
     62 H6A2        -1.0000     3.5360     5.9490 hn         1 NDC       0.495500
     63 H2A         -3.0240    -0.2640     4.6820 h5         1 NDC       0.028100
     64 H5A1         2.2330    -3.2690    -2.0800 h1         1 NDC       0.021200
     65 H5A2         1.1100    -4.0430    -3.2110 h1         1 NDC       0.021200
     66 H4B          2.3660    -3.1940    -5.1550 h1         1 NDC       0.128700
     67 H3B          3.3150    -5.3470    -3.8060 h1         1 NDC       0.067700
     68 HOA3         5.5510    -4.6770    -4.9030 ho         1 NDC       0.509000
     69 H2B          4.3150    -4.2010    -1.9400 h1         1 NDC       0.076700
     70 HOB2         6.0980    -5.3460    -2.4390 ho         1 NDC       0.521000
     71 H1B          5.7580    -2.0380    -3.4560 h2         1 NDC       0.108700
     72 H2N          5.7910    -2.7460    -0.6260 h4         1 NDC       0.153000
     73 H7N1         7.0960    -2.2690     0.9840 hn         1 NDC       0.317500
     74 H7N2         6.9540    -2.7530     2.6620 hn         1 NDC       0.317500
     75 H5N          2.6760     1.0860    -0.7740 ha         1 NDC       0.238000
     76 H6N          3.3700    -0.0690    -2.8390 h4         1 NDC       0.256000
     77 HC21         3.6410     2.6820     3.7760 hc         1 NDC       0.056200
     78 HC22         3.2860     4.0520     2.6830 hc         1 NDC       0.056200
     79 HC31         1.2820     3.2290     4.0470 hc         1 NDC       0.057700
     80 HC32         0.9900     3.0400     2.3210 hc         1 NDC       0.057700
     81 HC41         1.8950     0.8220     4.2620 hc         1 NDC       0.039700
     82 HC42         0.3050     0.9740     3.5240 hc         1 NDC       0.039700
     83 HC51         1.7010    -0.7240     2.3170 hc         1 NDC       0.092700
     84 HC52         1.2310     0.6000     1.2670 hc         1 NDC       0.092700
     85 HC6          3.8760     0.3180     2.7180 hc         1 NDC       0.072700
@<TRIPOS>BOND
     1     1     2 1   
     2     1     3 1   
     3     1     4 1   
     4     1    23 1   
     5     4     5 1   
     6     5     6 1   
     7     5    52 1   
     8     5    53 1   
     9     6     7 1   
    10     6     8 1   
    11     6    54 1   
    12     7    12 1   
    13     8     9 1   
    14     8    10 1   
    15     8    55 1   
    16     9    56 1   
    17    10    11 1   
    18    10    12 1   
    19    10    57 1   
    20    11    58 1   
    21    12    13 1   
    22    12    59 1   
    23    13    14 1   
    24    13    22 1   
    25    14    15 2   
    26    14    60 1   
    27    15    16 1   
    28    16    17 ar  
    29    16    22 ar  
    30    17    18 1   
    31    17    19 ar  
    32    18    61 1   
    33    18    62 1   
    34    19    20 ar  
    35    20    21 ar  
    36    20    63 1   
    37    21    22 ar  
    38    23    24 1   
    39    24    25 1   
    40    24    26 1   
    41    24    27 1   
    42    27    28 1   
    43    28    29 1   
    44    28    64 1   
    45    28    65 1   
    46    29    30 1   
    47    29    31 1   
    48    29    66 1   
    49    30    35 1   
    50    31    32 1   
    51    31    33 1   
    52    31    67 1   
    53    32    68 1   
    54    33    34 1   
    55    33    35 1   
    56    33    69 1   
    57    34    70 1   
    58    35    36 1   
    59    35    71 1   
    60    36    37 1   
    61    36    44 2   
    62    37    38 ar  
    63    37    72 1   
    64    38    39 1   
    65    38    42 ar  
    66    39    40 2   
    67    39    41 1   
    68    41    73 1   
    69    41    74 1   
    70    42    43 ar  
    71    42    51 1   
    72    43    44 ar  
    73    43    75 1   
    74    44    76 1   
    75    45    46 2   
    76    45    47 1   
    77    45    51 1   
    78    47    48 1   
    79    47    77 1   
    80    47    78 1   
    81    48    49 1   
    82    48    79 1   
    83    48    80 1   
    84    49    50 1   
    85    49    81 1   
    86    49    82 1   
    87    50    51 1   
    88    50    83 1   
    89    50    84 1   
    90    51    85 1   
@<TRIPOS>SUBSTRUCTURE
     1 NDC         1 TEMP              0 ****  ****    0 ROOT
