@<TRIPOS>MOLECULE
NDC
   85    90     1     0     0
SMALL
bcc


@<TRIPOS>ATOM
      1 PA          -0.0450     0.9960    -2.8150 p5         1 NDC       1.483800
      2 O1A          0.2190     1.8040    -1.5790 o          1 NDC      -0.862500
      3 O2A          1.0530     0.7410    -3.8010 o          1 NDC      -0.862500
      4 O5          -1.2780     1.6700    -3.6620 os         1 NDC      -0.552200
      5 C5          -2.1590     2.6140    -3.0970 c3         1 NDC       0.201400
      6 C4          -3.4560     1.9940    -2.6070 c5         1 NDC       0.115100
      7 O4          -3.2280     1.0710    -1.5360 os         1 NDC      -0.355600
      8 C3          -4.4050     3.0540    -2.0560 c5         1 NDC       0.080100
      9 O3          -5.7310     2.6490    -2.2830 oh         1 NDC      -0.587800
     10 C2          -4.0660     3.0080    -0.5650 c5         1 NDC       0.040100
     11 O2          -5.0730     3.4700     0.2850 oh         1 NDC      -0.575800
     12 C1          -3.8520     1.5090    -0.3700 c5         1 NDC       0.275800
     13 N9A         -3.0360     1.1750     0.7720 na         1 NDC      -0.253000
     14 C8A         -1.6670     1.2120     0.8740 cc         1 NDC       0.456700
     15 N7A         -1.2460     0.9260     2.0730 nd         1 NDC      -0.590100
     16 C5A         -2.3840     0.6920     2.7980 ca         1 NDC      -0.213200
     17 C6A         -2.6040     0.3410     4.1400 ca         1 NDC       0.763200
     18 N6A         -1.6050     0.1610     5.0090 nv         1 NDC      -0.973500
     19 N1A         -3.8670     0.1790     4.5510 nb         1 NDC      -0.845000
     20 C2A         -4.8550     0.3460     3.6740 ca         1 NDC       0.678900
     21 N3A         -4.7750     0.6730     2.3970 nb         1 NDC      -0.727000
     22 C4A         -3.5120     0.8390     2.0060 ca         1 NDC       0.448800
     23 OPP         -0.7830    -0.4250    -2.4650 os         1 NDC      -0.692800
     24 PN          -0.2470    -1.7070    -1.6130 p5         1 NDC       1.458800
     25 O1N          0.6370    -1.3000    -0.4800 o          1 NDC      -0.845000
     26 O2N         -1.4240    -2.6040    -1.3910 o          1 NDC      -0.845000
     27 O5B          0.6920    -2.3610    -2.8170 os         1 NDC      -0.548200
     28 C5B          1.4600    -3.4870    -2.4820 c3         1 NDC       0.182400
     29 C4B          2.5930    -3.6470    -3.4830 c5         1 NDC       0.124100
     30 O4B          3.3990    -2.4660    -3.6070 os         1 NDC      -0.331600
     31 C3B          3.5860    -4.7110    -3.0530 c5         1 NDC       0.088100
     32 O3B          4.3080    -5.1330    -4.1760 oh         1 NDC      -0.577800
     33 C2B          4.4780    -3.9090    -2.0890 c5         1 NDC       0.045100
     34 O2B          5.7960    -4.3640    -2.0070 oh         1 NDC      -0.600800
     35 C1B          4.4460    -2.5020    -2.7210 c5         1 NDC       0.231800
     36 N1N          4.2580    -1.4460    -1.6700 na         1 NDC      -0.007100
     37 C2N          5.1160    -1.4230    -0.6390 ca         1 NDC      -0.073300
     38 C3N          4.9740    -0.5160     0.3840 ca         1 NDC      -0.180600
     39 C7N          5.8990    -0.6360     1.5630 c          1 NDC       0.688700
     40 O7N          5.4490    -0.7650     2.6890 o          1 NDC      -0.574100
     41 N7N          7.1990    -0.6250     1.2590 nt         1 NDC      -0.674000
     42 C4N          3.9220     0.4110     0.3400 ca         1 NDC       0.072700
     43 C5N          3.0910     0.3820    -0.7690 ca         1 NDC      -0.070000
     44 C6N          3.2680    -0.5550    -1.7600 ca         1 NDC       0.053700
     45 CC1          3.5050     2.8140     0.9490 c          1 NDC       0.590100
     46 OC1          3.8440     3.1470    -0.1630 o          1 NDC      -0.516100
     47 CC2          3.0000     3.7930     1.9750 c6         1 NDC      -0.171400
     48 CC3          1.7180     3.3020     2.6520 c6         1 NDC      -0.071400
     49 CC4          1.9130     1.9150     3.2450 c6         1 NDC      -0.067400
     50 CC5          2.3270     0.9220     2.1720 c6         1 NDC      -0.067400
     51 CC6          3.6110     1.3770     1.4400 c6         1 NDC      -0.143400
     52 H5'1        -1.6730     3.1780    -2.2950 h1         1 NDC       0.024200
     53 H5'2        -2.4160     3.3270    -3.8850 h1         1 NDC       0.024200
     54 H4          -3.9260     1.4530    -3.4350 h1         1 NDC       0.100700
     55 H3          -4.2080     4.0450    -2.4890 h1         1 NDC       0.043700
     56 HO'3        -6.2900     3.0900    -1.6310 ho         1 NDC       0.409000
     57 H2          -3.1170     3.5310    -0.3930 h1         1 NDC       0.063700
     58 HO'2        -4.9990     4.4260     0.3620 ho         1 NDC       0.399000
     59 H1          -4.8190     1.0150    -0.2070 h2         1 NDC       0.101700
     60 H8A         -1.0280     1.4320     0.0260 h5         1 NDC       0.145800
     61 H6A1        -0.6480     0.2750     4.7250 hn         1 NDC       0.440300
     62 H6A2        -1.7960    -0.0520     5.9720 hn         1 NDC       0.440300
     63 H2A         -5.8560     0.1940     4.0660 h5         1 NDC       0.028100
     64 H5A1         1.8530    -3.4080    -1.4610 h1         1 NDC       0.021200
     65 H5A2         0.8630    -4.4070    -2.5160 h1         1 NDC       0.021200
     66 H4B          2.1810    -3.8470    -4.4740 h1         1 NDC       0.128700
     67 H3B          3.1000    -5.5480    -2.5360 h1         1 NDC       0.067700
     68 HOA3         5.1540    -5.4850    -3.8750 ho         1 NDC       0.410000
     69 H2B          4.0050    -3.8850    -1.1010 h1         1 NDC       0.076700
     70 HOB2         5.8460    -5.0610    -1.3450 ho         1 NDC       0.422000
     71 H1B          5.3880    -2.2550    -3.2190 h2         1 NDC       0.108700
     72 H2N          5.9040    -2.1650    -0.6450 h4         1 NDC       0.171000
     73 H7N1         7.5300    -0.4000     0.3360 hn         1 NDC       0.317500
     74 H7N2         7.8890    -0.7260     1.9860 hn         1 NDC       0.317500
     75 H5N          2.2490     1.0520    -0.8640 ha         1 NDC       0.256000
     76 H6N          2.6210    -0.5970    -2.6230 h4         1 NDC       0.274000
     77 HC21         3.7830     3.9020     2.7350 hc         1 NDC       0.056200
     78 HC22         2.8640     4.7680     1.5060 hc         1 NDC       0.056200
     79 HC31         1.4270     4.0160     3.4240 hc         1 NDC       0.057700
     80 HC32         0.9010     3.2720     1.9250 hc         1 NDC       0.057700
     81 HC41         2.6670     1.9520     4.0380 hc         1 NDC       0.039700
     82 HC42         0.9820     1.5750     3.6980 hc         1 NDC       0.039700
     83 HC51         2.5180    -0.0610     2.6060 hc         1 NDC       0.092700
     84 HC52         1.5120     0.7970     1.4530 hc         1 NDC       0.092700
     85 HC6          4.4120     1.3980     2.1850 hc         1 NDC       0.072700
@<TRIPOS>BOND
     1     1     2 1   
     2     1     3 1   
     3     1     4 1   
     4     1    23 1   
     5     4     5 1   
     6     5     6 1   
     7     5    52 1   
     8     5    53 1   
     9     6     7 1   
    10     6     8 1   
    11     6    54 1   
    12     7    12 1   
    13     8     9 1   
    14     8    10 1   
    15     8    55 1   
    16     9    56 1   
    17    10    11 1   
    18    10    12 1   
    19    10    57 1   
    20    11    58 1   
    21    12    13 1   
    22    12    59 1   
    23    13    14 1   
    24    13    22 1   
    25    14    15 2   
    26    14    60 1   
    27    15    16 1   
    28    16    17 ar  
    29    16    22 ar  
    30    17    18 1   
    31    17    19 ar  
    32    18    61 1   
    33    18    62 1   
    34    19    20 ar  
    35    20    21 ar  
    36    20    63 1   
    37    21    22 ar  
    38    23    24 1   
    39    24    25 1   
    40    24    26 1   
    41    24    27 1   
    42    27    28 1   
    43    28    29 1   
    44    28    64 1   
    45    28    65 1   
    46    29    30 1   
    47    29    31 1   
    48    29    66 1   
    49    30    35 1   
    50    31    32 1   
    51    31    33 1   
    52    31    67 1   
    53    32    68 1   
    54    33    34 1   
    55    33    35 1   
    56    33    69 1   
    57    34    70 1   
    58    35    36 1   
    59    35    71 1   
    60    36    37 1   
    61    36    44 2   
    62    37    38 ar  
    63    37    72 1   
    64    38    39 1   
    65    38    42 ar  
    66    39    40 2   
    67    39    41 1   
    68    41    73 1   
    69    41    74 1   
    70    42    43 ar  
    71    42    51 1   
    72    43    44 ar  
    73    43    75 1   
    74    44    76 1   
    75    45    46 2   
    76    45    47 1   
    77    45    51 1   
    78    47    48 1   
    79    47    77 1   
    80    47    78 1   
    81    48    49 1   
    82    48    79 1   
    83    48    80 1   
    84    49    50 1   
    85    49    81 1   
    86    49    82 1   
    87    50    51 1   
    88    50    83 1   
    89    50    84 1   
    90    51    85 1   
@<TRIPOS>SUBSTRUCTURE
     1 NDC         1 TEMP              0 ****  ****    0 ROOT
