@<TRIPOS>MOLECULE
NDD
   22    23     1     0     0
SMALL
No Charge or Current Charge


@<TRIPOS>ATOM
      1 C1          -0.9430    -0.0090     1.6010 ca         1 NDD      -0.093000
      2 C2           0.1020     0.0130     2.5570 ca         1 NDD      -0.156600
      3 C3           1.4380     0.0400     2.0920 ca         1 NDD      -0.087000
      4 C4           1.7220     0.0450     0.7150 ca         1 NDD      -0.149000
      5 C4A          0.6770     0.0230    -0.2250 ca         1 NDD      -0.053000
      6 C5           0.9600     0.0280    -1.6040 ca         1 NDD      -0.093000
      7 C6          -0.0840     0.0060    -2.5600 ca         1 NDD      -0.156600
      8 C7          -1.4210    -0.0220    -2.0950 ca         1 NDD      -0.087000
      9 C8          -1.7040    -0.0270    -0.7180 ca         1 NDD      -0.149000
     10 C8A         -0.6590    -0.0050     0.2210 ca         1 NDD      -0.053000
     11 C9          -0.2050     0.0080     4.0470 c          1 NDD       0.716600
     12 O1          -1.3740    -0.0170     4.4060 o          1 NDD      -0.741500
     13 O2           0.7270     0.0270     4.8390 o          1 NDD      -0.741500
     14 C10          0.2230     0.0110    -4.0500 c          1 NDD       0.716600
     15 O3           1.3910     0.0350    -4.4100 o          1 NDD      -0.741500
     16 O4          -0.7090    -0.0090    -4.8420 o          1 NDD      -0.741500
     17 H1          -1.9790    -0.0310     1.9280 ha         1 NDD       0.115000
     18 H3           2.2660     0.0580     2.7980 ha         1 NDD       0.110000
     19 H4           2.7570     0.0670     0.3820 ha         1 NDD       0.082000
     20 H5           1.9970     0.0490    -1.9320 ha         1 NDD       0.115000
     21 H7          -2.2480    -0.0400    -2.8010 ha         1 NDD       0.110000
     22 H8          -2.7390    -0.0480    -0.3850 ha         1 NDD       0.082000
@<TRIPOS>BOND
     1     1     2 ar  
     2     1    10 ar  
     3     1    17 1   
     4     2     3 ar  
     5     2    11 1   
     6     3     4 ar  
     7     3    18 1   
     8     4     5 ar  
     9     4    19 1   
    10     5     6 ar  
    11     5    10 ar  
    12     6     7 ar  
    13     6    20 1   
    14     7     8 ar  
    15     7    14 1   
    16     8     9 ar  
    17     8    21 1   
    18     9    10 ar  
    19     9    22 1   
    20    11    12 1   
    21    11    13 1   
    22    14    15 1   
    23    14    16 1   
@<TRIPOS>SUBSTRUCTURE
     1 NDD         1 TEMP              0 ****  ****    0 ROOT
