@<TRIPOS>MOLECULE
NDD
   22    23     1     0     0
SMALL
abcg2


@<TRIPOS>ATOM
      1 C1          -0.9230    -0.0090     1.6130 ca         1 NDD      -0.093000
      2 C2           0.0930     0.0130     2.5350 ca         1 NDD      -0.156600
      3 C3           1.4310     0.0410     2.0730 ca         1 NDD      -0.087000
      4 C4           1.7170     0.0460     0.7360 ca         1 NDD      -0.149000
      5 C4A          0.6810     0.0230    -0.2280 ca         1 NDD      -0.053000
      6 C5           0.9410     0.0280    -1.6170 ca         1 NDD      -0.093000
      7 C6          -0.0750     0.0060    -2.5380 ca         1 NDD      -0.156600
      8 C7          -1.4130    -0.0220    -2.0760 ca         1 NDD      -0.087000
      9 C8          -1.7000    -0.0280    -0.7400 ca         1 NDD      -0.149000
     10 C8A         -0.6630    -0.0050     0.2250 ca         1 NDD      -0.053000
     11 C9          -0.2080     0.0080     4.0290 c          1 NDD       0.716600
     12 O1          -1.4090    -0.0120     4.3600 o          1 NDD      -0.741500
     13 O2           0.7750     0.0230     4.7940 o          1 NDD      -0.741500
     14 C10          0.2250     0.0110    -4.0320 c          1 NDD       0.716600
     15 O3           1.4270     0.0310    -4.3630 o          1 NDD      -0.741500
     16 O4          -0.7580    -0.0050    -4.7970 o          1 NDD      -0.741500
     17 H1          -1.9520    -0.0310     1.9540 ha         1 NDD       0.115000
     18 H3           2.2350     0.0580     2.7970 ha         1 NDD       0.110000
     19 H4           2.7470     0.0680     0.3990 ha         1 NDD       0.082000
     20 H5           1.9690     0.0500    -1.9580 ha         1 NDD       0.115000
     21 H7          -2.2170    -0.0390    -2.8000 ha         1 NDD       0.110000
     22 H8          -2.7300    -0.0510    -0.4020 ha         1 NDD       0.082000
@<TRIPOS>BOND
     1     1     2 ar  
     2     1    10 ar  
     3     1    17 1   
     4     2     3 ar  
     5     2    11 1   
     6     3     4 ar  
     7     3    18 1   
     8     4     5 ar  
     9     4    19 1   
    10     5     6 ar  
    11     5    10 ar  
    12     6     7 ar  
    13     6    20 1   
    14     7     8 ar  
    15     7    14 1   
    16     8     9 ar  
    17     8    21 1   
    18     9    10 ar  
    19     9    22 1   
    20    11    12 1   
    21    11    13 1   
    22    14    15 1   
    23    14    16 1   
@<TRIPOS>SUBSTRUCTURE
     1 NDD         1 TEMP              0 ****  ****    0 ROOT
