@<TRIPOS>MOLECULE
NDF
   26    26     1     0     0
SMALL
bcc


@<TRIPOS>ATOM
      1 CD1         19.9370    26.2220    33.0050 ca         1 NDF      -0.118000
      2 CE1         21.0560    26.4100    33.8040 ca         1 NDF      -0.134500
      3 CZ          22.1580    25.5750    33.6680 ca         1 NDF      -0.160000
      4 CE2         22.1230    24.5460    32.7350 ca         1 NDF      -0.134500
      5 CD2         20.9980    24.3600    31.9430 ca         1 NDF      -0.118000
      6 CG          19.8930    25.2000    32.0580 ca         1 NDF      -0.027300
      7 CB          18.7050    25.0430    31.1580 c3         1 NDF      -0.043100
      8 CA          18.8290    25.8450    29.8440 c3         1 NDF      -0.026300
      9 C           17.5430    25.6230    29.0040 c          1 NDF       0.922600
     10 O           17.6580    24.9680    27.9520 o          1 NDF      -0.846800
     11 OXT         16.5030    26.1050    29.4910 o          1 NDF      -0.846800
     12 N           20.0030    25.4710    29.1050 ns         1 NDF      -0.543900
     13 C2          21.1610    26.1390    29.0650 c          1 NDF       0.512100
     14 O2          21.3910    27.1720    29.6830 o          1 NDF      -0.682100
     15 C1          22.2250    25.4700    28.1370 c          1 NDF       0.868600
     16 O1          21.8370    24.4770    27.4910 o          1 NDF      -0.828300
     17 O3          23.3450    25.9970    28.1440 o          1 NDF      -0.828300
     18 HD1         19.0840    26.8820    33.1160 ha         1 NDF       0.129000
     19 HE1         21.0690    27.2090    34.5350 ha         1 NDF       0.102500
     20 HZ          23.0330    25.7210    34.2880 ha         1 NDF       0.096000
     21 HE2         22.9740    23.8850    32.6250 ha         1 NDF       0.102500
     22 HD2         20.9810    23.5500    31.2220 ha         1 NDF       0.129000
     23 HB3         17.8020    25.3760    31.6710 hc         1 NDF       0.039700
     24 HB2         18.5640    23.9860    30.9100 hc         1 NDF       0.039700
     25 HA          18.9050    26.9050    30.0980 h1         1 NDF       0.053700
     26 H           19.9180    24.6950    28.4650 hn         1 NDF       0.345500
@<TRIPOS>BOND
     1     1     2 ar  
     2     1     6 ar  
     3     1    18 1   
     4     2     3 ar  
     5     2    19 1   
     6     3     4 ar  
     7     3    20 1   
     8     4     5 ar  
     9     4    21 1   
    10     5     6 ar  
    11     5    22 1   
    12     6     7 1   
    13     7     8 1   
    14     7    23 1   
    15     7    24 1   
    16     8     9 1   
    17     8    12 1   
    18     8    25 1   
    19     9    10 1   
    20     9    11 1   
    21    12    13 1   
    22    12    26 1   
    23    13    14 2   
    24    13    15 1   
    25    15    16 1   
    26    15    17 1   
@<TRIPOS>SUBSTRUCTURE
     1 NDF         1 TEMP              0 ****  ****    0 ROOT
