@<TRIPOS>MOLECULE
NDF
   26    26     1     0     0
SMALL
No Charge or Current Charge


@<TRIPOS>ATOM
      1 CD1         20.0110    26.2710    32.9150 ca         1 NDF      -0.100000
      2 CE1         21.1270    26.4480    33.7520 ca         1 NDF      -0.116500
      3 CZ          22.1730    25.5100    33.7360 ca         1 NDF      -0.142000
      4 CE2         22.1030    24.3960    32.8840 ca         1 NDF      -0.116500
      5 CD2         20.9860    24.2180    32.0480 ca         1 NDF      -0.100000
      6 CG          19.9340    25.1560    32.0580 ca         1 NDF      -0.027300
      7 CB          18.7170    24.9610    31.1590 c3         1 NDF      -0.043100
      8 CA          18.7510    25.8180    29.8680 c3         1 NDF      -0.026300
      9 C           17.4480    25.6180    29.0290 c          1 NDF       0.712000
     10 O           17.3180    24.5850    28.3850 o          1 NDF      -0.741500
     11 OXT         16.6440    26.5390    28.9810 o          1 NDF      -0.741500
     12 N           19.9530    25.5330    29.0440 ns         1 NDF      -0.476900
     13 C2          21.1270    26.2780    29.0200 c          1 NDF       0.445100
     14 O2          21.2440    27.3260    29.6640 o          1 NDF      -0.682100
     15 C1          22.3010    25.6510    28.0570 c          1 NDF       0.658000
     16 O1          22.0630    24.6030    27.4570 o          1 NDF      -0.723000
     17 O3          23.3740    26.2440    27.9560 o          1 NDF      -0.723000
     18 HD1         19.2050    27.0010    32.9310 ha         1 NDF       0.111000
     19 HE1         21.1810    27.3110    34.4100 ha         1 NDF       0.084500
     20 HZ          23.0360    25.6470    34.3830 ha         1 NDF       0.078000
     21 HE2         22.9120    23.6700    32.8710 ha         1 NDF       0.084500
     22 HD2         20.9400    23.3530    31.3910 ha         1 NDF       0.111000
     23 HB3         17.8070    25.2090    31.7190 hc         1 NDF       0.039700
     24 HB2         18.6200    23.9040    30.8830 hc         1 NDF       0.039700
     25 HA          18.7770    26.8750    30.1630 h1         1 NDF       0.053700
     26 H           19.9440    24.7060    28.4520 hn         1 NDF       0.345500
@<TRIPOS>BOND
     1     1     2 ar  
     2     1     6 ar  
     3     1    18 1   
     4     2     3 ar  
     5     2    19 1   
     6     3     4 ar  
     7     3    20 1   
     8     4     5 ar  
     9     4    21 1   
    10     5     6 ar  
    11     5    22 1   
    12     6     7 1   
    13     7     8 1   
    14     7    23 1   
    15     7    24 1   
    16     8     9 1   
    17     8    12 1   
    18     8    25 1   
    19     9    10 1   
    20     9    11 1   
    21    12    13 1   
    22    12    26 1   
    23    13    14 2   
    24    13    15 1   
    25    15    16 1   
    26    15    17 1   
@<TRIPOS>SUBSTRUCTURE
     1 NDF         1 TEMP              0 ****  ****    0 ROOT
