@<TRIPOS>MOLECULE
NDG
   30    30     1     0     0
SMALL
No Charge or Current Charge


@<TRIPOS>ATOM
      1 C1          72.4640    19.2760    10.7260 c6         1 NDG       0.372300
      2 C2          72.8170    20.0610    12.0380 c6         1 NDG       0.086700
      3 C3          72.7580    19.1380    13.3120 c6         1 NDG       0.128300
      4 C4          71.8930    17.8430    13.0910 c6         1 NDG       0.119300
      5 C5          70.7200    18.1330    12.1000 c6         1 NDG       0.104300
      6 C6          69.6390    19.1250    12.6380 c3         1 NDG       0.144600
      7 C7          74.3910    21.8720    11.2140 c          1 NDG       0.606100
      8 C8          75.8330    22.3560    11.2610 c3         1 NDG      -0.179100
      9 O5          71.1740    18.6260    10.7980 os         1 NDG      -0.468000
     10 O3          72.2450    19.9040    14.4180 oh         1 NDG      -0.646000
     11 O4          72.7180    16.8010    12.5410 oh         1 NDG      -0.718000
     12 O6          68.6800    19.4330    11.6150 oh         1 NDG      -0.698000
     13 O7          73.5200    22.4480    10.5810 o          1 NDG      -0.595100
     14 N2          74.1360    20.7310    11.9360 ns         1 NDG      -0.503900
     15 O1          73.4140    18.2440    10.4430 oh         1 NDG      -0.708000
     16 H1          72.4510    19.9940     9.8900 h2         1 NDG       0.083700
     17 H2          72.0540    20.8460    12.1460 h1         1 NDG       0.120700
     18 H3          73.7830    18.8110    13.5470 h1         1 NDG       0.052700
     19 H4          71.4760    17.5150    14.0550 h1         1 NDG       0.077700
     20 H5          70.1950    17.1830    11.9240 h1         1 NDG       0.069700
     21 H61         69.1450    18.6710    13.5080 h1         1 NDG       0.055200
     22 H62         70.1200    20.0480    12.9830 h1         1 NDG       0.055200
     23 H81         75.9920    23.2660    10.6720 hc         1 NDG       0.061367
     24 H82         76.1290    22.4930    12.3070 hc         1 NDG       0.061367
     25 H83         76.4930    21.5430    10.9370 hc         1 NDG       0.061367
     26 HO3         72.5750    19.4810    15.2420 ho         1 NDG       0.448000
     27 HO4         73.0510    17.1920    11.6800 ho         1 NDG       0.530000
     28 HO6         69.1840    19.3640    10.7690 ho         1 NDG       0.496000
     29 HN2         74.9270    20.3170    12.4150 hn         1 NDG       0.318500
     30 HO1         73.2970    18.0460     9.4870 ho         1 NDG       0.465000
@<TRIPOS>BOND
     1     1     2 1   
     2     1     9 1   
     3     1    15 1   
     4     1    16 1   
     5     2     3 1   
     6     2    14 1   
     7     2    17 1   
     8     3     4 1   
     9     3    10 1   
    10     3    18 1   
    11     4     5 1   
    12     4    11 1   
    13     4    19 1   
    14     5     6 1   
    15     5     9 1   
    16     5    20 1   
    17     6    12 1   
    18     6    21 1   
    19     6    22 1   
    20     7     8 1   
    21     7    13 2   
    22     7    14 1   
    23     8    23 1   
    24     8    24 1   
    25     8    25 1   
    26    10    26 1   
    27    11    27 1   
    28    12    28 1   
    29    14    29 1   
    30    15    30 1   
@<TRIPOS>SUBSTRUCTURE
     1 NDG         1 TEMP              0 ****  ****    0 ROOT
