@<TRIPOS>MOLECULE
NDG
   30    30     1     0     0
SMALL
bcc


@<TRIPOS>ATOM
      1 C1          72.5200    19.2560    10.6350 c6         1 NDG       0.325900
      2 C2          72.8990    20.0430    11.8860 c6         1 NDG       0.086700
      3 C3          72.7980    19.1890    13.1600 c6         1 NDG       0.105100
      4 C4          71.8810    17.9590    12.9680 c6         1 NDG       0.096100
      5 C5          70.7580    18.2390    11.9690 c6         1 NDG       0.081100
      6 C6          69.6930    19.1720    12.5380 c3         1 NDG       0.121400
      7 C7          74.4270    21.9630    11.6220 c          1 NDG       0.673100
      8 C8          75.8760    22.3520    11.4690 c3         1 NDG      -0.179100
      9 O5          71.2300    18.7360    10.7150 os         1 NDG      -0.421600
     10 O3          72.3420    20.0530    14.1740 oh         1 NDG      -0.583800
     11 O4          72.6140    16.8050    12.6300 oh         1 NDG      -0.595800
     12 O6          68.5980    19.3390    11.6710 oh         1 NDG      -0.575800
     13 O7          73.5350    22.7990    11.6270 o          1 NDG      -0.595100
     14 N2          74.2020    20.6390    11.7490 ns         1 NDG      -0.570900
     15 O1          73.4920    18.2570    10.4490 oh         1 NDG      -0.645800
     16 H1          72.5130    19.9290     9.7720 h2         1 NDG       0.083700
     17 H2          72.1790    20.8590    11.9640 h1         1 NDG       0.120700
     18 H3          73.7940    18.7960    13.4070 h1         1 NDG       0.052700
     19 H4          71.4150    17.7350    13.9320 h1         1 NDG       0.077700
     20 H5          70.2720    17.2800    11.7510 h1         1 NDG       0.069700
     21 H61         69.3790    18.7750    13.5120 h1         1 NDG       0.055200
     22 H62         70.0980    20.1690    12.7200 h1         1 NDG       0.055200
     23 H81         76.0130    22.8640    10.5170 hc         1 NDG       0.061367
     24 H82         76.1460    23.0550    12.2570 hc         1 NDG       0.061367
     25 H83         76.5640    21.5090    11.5080 hc         1 NDG       0.061367
     26 HO3         72.3940    19.5910    15.0180 ho         1 NDG       0.409000
     27 HO4         73.0810    16.9870    11.8010 ho         1 NDG       0.431000
     28 HO6         68.1450    18.4940    11.5890 ho         1 NDG       0.397000
     29 HN2         74.9930    20.0150    11.7090 hn         1 NDG       0.318500
     30 HO1         73.4230    17.9020     9.5550 ho         1 NDG       0.426000
@<TRIPOS>BOND
     1     1     2 1   
     2     1     9 1   
     3     1    15 1   
     4     1    16 1   
     5     2     3 1   
     6     2    14 1   
     7     2    17 1   
     8     3     4 1   
     9     3    10 1   
    10     3    18 1   
    11     4     5 1   
    12     4    11 1   
    13     4    19 1   
    14     5     6 1   
    15     5     9 1   
    16     5    20 1   
    17     6    12 1   
    18     6    21 1   
    19     6    22 1   
    20     7     8 1   
    21     7    13 2   
    22     7    14 1   
    23     8    23 1   
    24     8    24 1   
    25     8    25 1   
    26    10    26 1   
    27    11    27 1   
    28    12    28 1   
    29    14    29 1   
    30    15    30 1   
@<TRIPOS>SUBSTRUCTURE
     1 NDG         1 TEMP              0 ****  ****    0 ROOT
