@<TRIPOS>MOLECULE
NDH
   22    23     1     0     0
SMALL
bcc


@<TRIPOS>ATOM
      1 OH2         -1.3860    -2.0940    -0.2940 oh         1 NDH      -0.574800
      2 C1          -1.1030    -0.7650    -0.6330 c6         1 NDH       0.203400
      3 C2          -2.0880     0.2280    -0.0270 c6         1 NDH       0.153300
      4 OH1         -2.1270     0.0340     1.3720 oh         1 NDH      -0.569800
      5 C3          -1.6470     1.6280    -0.3730 c2         1 NDH      -0.224200
      6 C4          -0.3500     1.9330    -0.4480 ce         1 NDH      -0.071200
      7 C4A          0.6830     0.9210    -0.2400 ca         1 NDH      -0.067800
      8 C8A          0.3180    -0.4340    -0.2550 ca         1 NDH      -0.050300
      9 C8           1.2780    -1.4030    -0.0100 ca         1 NDH      -0.100000
     10 C5           2.0080     1.2740     0.0010 ca         1 NDH      -0.112000
     11 C6           2.9650     0.2990     0.2460 ca         1 NDH      -0.131000
     12 C7           2.5970    -1.0380     0.2460 ca         1 NDH      -0.124000
     13 HH2         -2.2070    -2.3510    -0.7270 ho         1 NDH       0.404000
     14 H1          -1.1780    -0.6130    -1.7240 h1         1 NDH       0.039700
     15 H2          -3.0740     0.0370    -0.4710 h1         1 NDH       0.028700
     16 HH1         -2.7990     0.6180     1.7370 ho         1 NDH       0.399000
     17 H3          -2.4000     2.4000    -0.4810 ha         1 NDH       0.129000
     18 H4          -0.0310     2.9530    -0.6290 ha         1 NDH       0.129000
     19 H8           1.0110    -2.4510    -0.0240 ha         1 NDH       0.148000
     20 H5           2.2870     2.3210     0.0060 ha         1 NDH       0.129000
     21 H6           3.9910     0.5830     0.4380 ha         1 NDH       0.131000
     22 H7           3.3360    -1.8060     0.4390 ha         1 NDH       0.131000
@<TRIPOS>BOND
     1     1     2 1   
     2     1    13 1   
     3     2     3 1   
     4     2     8 1   
     5     2    14 1   
     6     3     4 1   
     7     3     5 1   
     8     3    15 1   
     9     4    16 1   
    10     5     6 2   
    11     5    17 1   
    12     6     7 1   
    13     6    18 1   
    14     7     8 ar  
    15     7    10 ar  
    16     8     9 ar  
    17     9    12 ar  
    18     9    19 1   
    19    10    11 ar  
    20    10    20 1   
    21    11    12 ar  
    22    11    21 1   
    23    12    22 1   
@<TRIPOS>SUBSTRUCTURE
     1 NDH         1 TEMP              0 ****  ****    0 ROOT
