@<TRIPOS>MOLECULE
NDH
   22    23     1     0     0
SMALL
No Charge or Current Charge


@<TRIPOS>ATOM
      1 OH2         -1.4580    -2.1450    -0.3090 oh         1 NDH      -0.637000
      2 C1          -1.0970    -0.8360    -0.7690 c6         1 NDH       0.226600
      3 C2          -2.1680     0.1880    -0.2550 c6         1 NDH       0.176500
      4 OH1         -2.4520    -0.0350     1.1320 oh         1 NDH      -0.632000
      5 C3          -1.6910     1.6190    -0.3960 c2         1 NDH      -0.274200
      6 C4          -0.3820     1.9410    -0.3280 ce         1 NDH      -0.121200
      7 C4A          0.6700     0.9060    -0.1550 ca         1 NDH      -0.067800
      8 C8A          0.3410    -0.4560    -0.3470 ca         1 NDH      -0.050300
      9 C8           1.3510    -1.4350    -0.2130 ca         1 NDH      -0.082000
     10 C5           1.9860     1.2740     0.1820 ca         1 NDH      -0.094000
     11 C6           2.9790     0.2920     0.3290 ca         1 NDH      -0.113000
     12 C7           2.6620    -1.0620     0.1300 ca         1 NDH      -0.106000
     13 HH2         -1.8730    -1.9660     0.5660 ho         1 NDH       0.443000
     14 H1          -1.1190    -0.8170    -1.8690 h1         1 NDH       0.039700
     15 H2          -3.0870     0.0610    -0.8470 h1         1 NDH       0.028700
     16 HH1         -2.8700     0.7900     1.4600 ho         1 NDH       0.438000
     17 H3          -2.4560     2.3850    -0.5380 ha         1 NDH       0.179000
     18 H4          -0.0440     2.9770    -0.4020 ha         1 NDH       0.179000
     19 H8           1.1240    -2.4850    -0.3800 ha         1 NDH       0.130000
     20 H5           2.2400     2.3210     0.3300 ha         1 NDH       0.111000
     21 H6           3.9950     0.5800     0.5910 ha         1 NDH       0.113000
     22 H7           3.4330    -1.8220     0.2350 ha         1 NDH       0.113000
@<TRIPOS>BOND
     1     1     2 1   
     2     1    13 1   
     3     2     3 1   
     4     2     8 1   
     5     2    14 1   
     6     3     4 1   
     7     3     5 1   
     8     3    15 1   
     9     4    16 1   
    10     5     6 2   
    11     5    17 1   
    12     6     7 1   
    13     6    18 1   
    14     7     8 ar  
    15     7    10 ar  
    16     8     9 ar  
    17     9    12 ar  
    18     9    19 1   
    19    10    11 ar  
    20    10    20 1   
    21    11    12 ar  
    22    11    21 1   
    23    12    22 1   
@<TRIPOS>SUBSTRUCTURE
     1 NDH         1 TEMP              0 ****  ****    0 ROOT
