@<TRIPOS>MOLECULE
NDI
   40    41     1     0     0
SMALL
No Charge or Current Charge


@<TRIPOS>ATOM
      1 N1          11.2910    -0.5500    23.0050 n3         1 NDI      -0.698600
      2 N3           7.4600     0.6230    17.1760 nb         1 NDI      -0.647000
      3 C4           9.9620     0.0230    22.6070 c3         1 NDI       0.091800
      4 C5           9.6340     0.1840    21.0910 c          1 NDI       0.596100
      5 C6           7.5380     0.4330    19.6110 ca         1 NDI      -0.084000
      6 C7           8.1520     0.4830    18.3320 ca         1 NDI       0.336900
      7 C8           6.1150     0.7200    17.2540 ca         1 NDI       0.319900
      8 C10          6.1290     0.5340    19.6770 ca         1 NDI      -0.079300
      9 C13         12.9560    -0.9390    24.8600 c6         1 NDI       0.101000
     10 O1          10.4980     0.2230    20.2190 o          1 NDI      -0.551100
     11 N2           8.2720     0.2840    20.8270 ns         1 NDI      -0.163000
     12 C11          5.3790     0.4900    21.0050 c3         1 NDI      -0.050800
     13 C9           5.4180     0.6800    18.4710 ca         1 NDI      -0.146000
     14 C3          11.4770    -1.9570    22.5610 c6         1 NDI       0.146300
     15 C2          12.8980    -2.4980    22.8790 c6         1 NDI       0.101000
     16 C12         11.5310    -0.4660    24.4680 c6         1 NDI       0.146300
     17 N           13.3720    -2.2550    24.2800 n          1 NDI      -0.421800
     18 C1          14.5310    -2.8920    24.7790 c          1 NDI       0.602100
     19 O           15.1440    -2.4270    25.7310 o          1 NDI      -0.614100
     20 C           14.9710    -4.2190    24.1570 c3         1 NDI      -0.172100
     21 H2           9.8520     1.0270    23.0400 h1         1 NDI       0.048700
     22 H3           9.1600    -0.5880    23.0440 h1         1 NDI       0.048700
     23 H4           9.2290     0.4070    18.2070 h4         1 NDI       0.041100
     24 H5           5.5800     0.8320    16.3120 h4         1 NDI       0.022100
     25 H6          13.0130    -0.9850    25.9570 h1         1 NDI       0.064950
     26 H7          13.6760    -0.1760    24.5330 h1         1 NDI       0.064950
     27 H8           7.6880     0.2410    21.6530 hn         1 NDI       0.149000
     28 H9           5.5580    -0.4580    21.5280 hc         1 NDI       0.046700
     29 H10          5.6960     1.3060    21.6650 hc         1 NDI       0.046700
     30 H11          4.2960     0.5860    20.8630 hc         1 NDI       0.046700
     31 H12          4.3350     0.7630    18.4680 ha         1 NDI       0.122000
     32 H13         11.3080    -2.0510    21.4790 h1         1 NDI       0.042950
     33 H14         10.7390    -2.6060    23.0560 h1         1 NDI       0.042950
     34 H15         12.8990    -3.5740    22.6580 h1         1 NDI       0.064950
     35 H16         13.6110    -2.0250    22.1890 h1         1 NDI       0.064950
     36 H17         11.3990     0.5680    24.8200 h1         1 NDI       0.042950
     37 H18         10.7960    -1.0830    25.0060 h1         1 NDI       0.042950
     38 H19         15.8160    -4.6710    24.6880 hc         1 NDI       0.061033
     39 H20         14.1130    -4.8990    24.1120 hc         1 NDI       0.061033
     40 H21         15.2110    -4.0600    23.1000 hc         1 NDI       0.061033
@<TRIPOS>BOND
     1     1     3 1   
     2     1    14 1   
     3     1    16 1   
     4     2     6 ar  
     5     2     7 ar  
     6     3     4 1   
     7     3    21 1   
     8     3    22 1   
     9     4    10 2   
    10     4    11 1   
    11     5     6 ar  
    12     5     8 ar  
    13     5    11 1   
    14     6    23 1   
    15     7    13 ar  
    16     7    24 1   
    17     8    12 1   
    18     8    13 ar  
    19     9    16 1   
    20     9    17 1   
    21     9    25 1   
    22     9    26 1   
    23    11    27 1   
    24    12    28 1   
    25    12    29 1   
    26    12    30 1   
    27    13    31 1   
    28    14    15 1   
    29    14    32 1   
    30    14    33 1   
    31    15    17 1   
    32    15    34 1   
    33    15    35 1   
    34    16    36 1   
    35    16    37 1   
    36    17    18 1   
    37    18    19 2   
    38    18    20 1   
    39    20    38 1   
    40    20    39 1   
    41    20    40 1   
@<TRIPOS>SUBSTRUCTURE
     1 NDI         1 TEMP              0 ****  ****    0 ROOT
