@<TRIPOS>MOLECULE
NDI
   40    41     1     0     0
SMALL
abcg2


@<TRIPOS>ATOM
      1 N1          11.2000    -0.5880    22.9870 n3         1 NDI      -0.698600
      2 N3           7.6300     0.2310    17.3570 nb         1 NDI      -0.647000
      3 C4           9.7990    -0.3200    22.7530 c3         1 NDI       0.091800
      4 C5           9.4850    -0.0030    21.2930 c          1 NDI       0.596100
      5 C6           7.5480     0.0890    19.7530 ca         1 NDI      -0.084000
      6 C7           8.1940    -0.0700    18.5270 ca         1 NDI       0.336900
      7 C8           6.3770     0.6950    17.3740 ca         1 NDI       0.319900
      8 C10          6.2300     0.5690    19.7740 ca         1 NDI      -0.079300
      9 C13         13.0290    -0.6870    24.6160 c6         1 NDI       0.101000
     10 O1          10.3030     0.4660    20.5170 o          1 NDI      -0.551100
     11 N2           8.1830    -0.2460    20.9650 ns         1 NDI      -0.163000
     12 C11          5.4830     0.7600    21.0600 c3         1 NDI      -0.050800
     13 C9           5.6520     0.8670    18.5440 ca         1 NDI      -0.146000
     14 C3          11.6110    -1.8780    22.4400 c6         1 NDI       0.146300
     15 C2          13.1090    -2.0850    22.6210 c6         1 NDI       0.101000
     16 C12         11.5340    -0.5040    24.4070 c6         1 NDI       0.146300
     17 N           13.4740    -1.9450    24.0260 n          1 NDI      -0.421800
     18 C1          14.1750    -2.8480    24.7510 c          1 NDI       0.602100
     19 O           14.4590    -2.6530    25.9380 o          1 NDI      -0.614100
     20 C           14.6110    -4.1220    24.0600 c3         1 NDI      -0.172100
     21 H2           9.5110     0.5670    23.3260 h1         1 NDI       0.048700
     22 H3           9.1510    -1.1430    23.0970 h1         1 NDI       0.048700
     23 H4           9.2040    -0.4550    18.5010 h4         1 NDI       0.041100
     24 H5           5.9320     0.9340    16.4140 h4         1 NDI       0.022100
     25 H6          13.2680    -0.6990    25.6740 h1         1 NDI       0.064950
     26 H7          13.5690     0.1380    24.1400 h1         1 NDI       0.064950
     27 H8           7.5890    -0.5780    21.7100 hn         1 NDI       0.149000
     28 H9           5.3200    -0.1940    21.5700 hc         1 NDI       0.046700
     29 H10          6.0450     1.4000    21.7450 hc         1 NDI       0.046700
     30 H11          4.5110     1.2140    20.8750 hc         1 NDI       0.046700
     31 H12          4.6380     1.2430    18.5020 ha         1 NDI       0.122000
     32 H13         11.3770    -1.9070    21.3750 h1         1 NDI       0.042950
     33 H14         11.0680    -2.7040    22.9300 h1         1 NDI       0.042950
     34 H15         13.3870    -3.0660    22.2520 h1         1 NDI       0.064950
     35 H16         13.6520    -1.3340    22.0380 h1         1 NDI       0.064950
     36 H17         11.2360     0.4770    24.7820 h1         1 NDI       0.042950
     37 H18         10.9920    -1.2680    24.9910 h1         1 NDI       0.042950
     38 H19         15.1680    -4.7200    24.7760 hc         1 NDI       0.061033
     39 H20         13.7530    -4.6960    23.7060 hc         1 NDI       0.061033
     40 H21         15.2460    -3.9090    23.1990 hc         1 NDI       0.061033
@<TRIPOS>BOND
     1     1     3 1   
     2     1    14 1   
     3     1    16 1   
     4     2     6 ar  
     5     2     7 ar  
     6     3     4 1   
     7     3    21 1   
     8     3    22 1   
     9     4    10 2   
    10     4    11 1   
    11     5     6 ar  
    12     5     8 ar  
    13     5    11 1   
    14     6    23 1   
    15     7    13 ar  
    16     7    24 1   
    17     8    12 1   
    18     8    13 ar  
    19     9    16 1   
    20     9    17 1   
    21     9    25 1   
    22     9    26 1   
    23    11    27 1   
    24    12    28 1   
    25    12    29 1   
    26    12    30 1   
    27    13    31 1   
    28    14    15 1   
    29    14    32 1   
    30    14    33 1   
    31    15    17 1   
    32    15    34 1   
    33    15    35 1   
    34    16    36 1   
    35    16    37 1   
    36    17    18 1   
    37    18    19 2   
    38    18    20 1   
    39    20    38 1   
    40    20    39 1   
    41    20    40 1   
@<TRIPOS>SUBSTRUCTURE
     1 NDI         1 TEMP              0 ****  ****    0 ROOT
