@<TRIPOS>MOLECULE
NDK
   48    50     1     0     0
SMALL
No Charge or Current Charge


@<TRIPOS>ATOM
      1 C17        -25.9310    26.3380   -28.8600 ca         1 NDK       0.295000
      2 C20        -25.5020    25.0010   -28.7460 ca         1 NDK      -0.035000
      3 C21        -25.1030    24.5330   -27.4750 ca         1 NDK      -0.197000
      4 C22        -24.5920    23.6430   -24.6740 c6         1 NDK       0.204300
      5 C26        -27.1940    20.5360   -20.3180 ca         1 NDK       0.119000
      6 C01        -30.3720    20.8690   -19.9330 c3         1 NDK      -0.087100
      7 C03        -29.2960    19.2850   -18.2250 c3         1 NDK      -0.087100
      8 C04        -27.9140    21.1730   -19.2720 ca         1 NDK       0.339300
      9 C06        -26.1870    22.7000   -18.9460 ca         1 NDK       0.342900
     10 C07        -25.4070    22.1300   -19.9750 ca         1 NDK      -0.103300
     11 C08        -24.0320    22.7030   -20.3220 c3         1 NDK      -0.100100
     12 C11        -24.2430    25.8020   -22.7200 c6         1 NDK       0.081000
     13 C12        -23.9630    25.9900   -24.2340 c6         1 NDK       0.204300
     14 C14        -25.1540    25.4270   -26.3850 ca         1 NDK       0.590900
     15 C18        -26.3510    26.8830   -30.1260 cg         1 NDK       0.232000
     16 C23        -24.8560    23.4120   -23.1600 c6         1 NDK       0.081000
     17 C25        -25.9250    21.0200   -20.6720 ca         1 NDK      -0.094000
     18 N07        -27.4110    22.2400   -18.5980 nb         1 NDK      -0.657000
     19 N10        -24.1890    24.3870   -22.2350 n          1 NDK      -0.422800
     20 N13        -24.7840    25.0660   -25.0670 nh         1 NDK      -0.783300
     21 N15        -25.5750    26.7050   -26.5610 nb         1 NDK      -0.412000
     22 N16        -25.9590    27.1570   -27.7780 nb         1 NDK      -0.227000
     23 N19        -26.6900    27.3140   -31.1580 n1         1 NDK      -0.436000
     24 O24        -24.1850    25.0820   -20.0470 o          1 NDK      -0.584100
     25 H1         -25.4770    24.3480   -29.6150 ha         1 NDK       0.139000
     26 H2         -24.7560    23.5130   -27.3570 ha         1 NDK       0.130000
     27 H3         -25.2750    22.9860   -25.2320 h1         1 NDK       0.069450
     28 H4         -23.5650    23.3260   -24.9080 h1         1 NDK       0.069450
     29 H5         -31.3740    20.6490   -19.5440 hc         1 NDK       0.040700
     30 H6         -30.3780    21.8960   -20.3180 hc         1 NDK       0.040700
     31 H7         -30.1790    20.1900   -20.7700 hc         1 NDK       0.040700
     32 H8         -29.6360    21.3730   -18.0020 hc         1 NDK       0.071700
     33 H9         -30.2770    19.0340   -17.8030 hc         1 NDK       0.040700
     34 H10        -29.0560    18.5350   -18.9870 hc         1 NDK       0.040700
     35 H11        -28.5530    19.2090   -17.4220 hc         1 NDK       0.040700
     36 H12        -25.8200    23.5540   -18.3780 h4         1 NDK       0.020100
     37 H13        -23.5510    22.0730   -21.0770 hc         1 NDK       0.066200
     38 H14        -23.4130    22.7080   -19.4170 hc         1 NDK       0.066200
     39 H15        -23.5200    26.4110   -22.1600 h1         1 NDK       0.067700
     40 H16        -25.2420    26.2040   -22.5010 h1         1 NDK       0.067700
     41 H17        -22.8940    25.8070   -24.4190 h1         1 NDK       0.069450
     42 H18        -24.1530    27.0440   -24.4840 h1         1 NDK       0.069450
     43 H19        -25.9410    23.4680   -22.9880 h1         1 NDK       0.067700
     44 H20        -24.5510    22.3840   -22.9310 h1         1 NDK       0.067700
     45 H21        -25.3620    20.5380   -21.4670 ha         1 NDK       0.136000
     46 C09        -24.1510    24.1490   -20.8400 c          1 NDK       0.602100
     47 F01        -27.6980    19.4710   -20.9860 f          1 NDK      -0.175000
     48 C02        -29.3100    20.7150   -18.8180 c3         1 NDK      -0.112000
@<TRIPOS>BOND
     1     1     2 ar  
     2     1    15 1   
     3     1    22 ar  
     4     2     3 ar  
     5     2    25 1   
     6     3    14 ar  
     7     3    26 1   
     8     4    16 1   
     9     4    20 1   
    10     4    27 1   
    11     4    28 1   
    12     5     8 ar  
    13     5    17 ar  
    14     5    47 1   
    15     6    29 1   
    16     6    30 1   
    17     6    31 1   
    18     6    48 1   
    19     7    33 1   
    20     7    34 1   
    21     7    35 1   
    22     7    48 1   
    23     8    18 ar  
    24     8    48 1   
    25     9    10 ar  
    26     9    18 ar  
    27     9    36 1   
    28    10    11 1   
    29    10    17 ar  
    30    11    37 1   
    31    11    38 1   
    32    11    46 1   
    33    12    13 1   
    34    12    19 1   
    35    12    39 1   
    36    12    40 1   
    37    13    20 1   
    38    13    41 1   
    39    13    42 1   
    40    14    20 1   
    41    14    21 ar  
    42    15    23 3   
    43    16    19 1   
    44    16    43 1   
    45    16    44 1   
    46    17    45 1   
    47    19    46 1   
    48    21    22 ar  
    49    24    46 2   
    50    32    48 1   
@<TRIPOS>SUBSTRUCTURE
     1 NDK         1 TEMP              0 ****  ****    0 ROOT
