@<TRIPOS>MOLECULE
NDK
   48    50     1     0     0
SMALL
abcg2


@<TRIPOS>ATOM
      1 C17        -23.5760    27.1960   -28.9880 ca         1 NDK       0.295000
      2 C20        -22.9410    25.9700   -28.7290 ca         1 NDK      -0.035000
      3 C21        -23.2560    25.3200   -27.5720 ca         1 NDK      -0.197000
      4 C22        -24.1150    24.0920   -25.0250 c6         1 NDK       0.204300
      5 C26        -28.3600    20.6310   -19.4790 ca         1 NDK       0.119000
      6 C01        -29.4010    21.2790   -16.5570 c3         1 NDK      -0.087100
      7 C03        -28.3130    18.9920   -16.7550 c3         1 NDK      -0.087100
      8 C04        -27.6310    20.8640   -18.3130 ca         1 NDK       0.339300
      9 C06        -25.9500    21.7810   -19.6140 ca         1 NDK       0.342900
     10 C07        -26.6350    21.5840   -20.8070 ca         1 NDK      -0.103300
     11 C08        -26.0610    22.0220   -22.1220 c3         1 NDK      -0.100100
     12 C11        -26.7040    25.1050   -24.2980 c6         1 NDK       0.081000
     13 C12        -25.5380    26.0280   -24.6310 c6         1 NDK       0.204300
     14 C14        -24.2080    25.9200   -26.7060 ca         1 NDK       0.590900
     15 C18        -23.3050    27.9440   -30.1720 cg         1 NDK       0.232000
     16 C23        -25.2820    23.1660   -24.6830 c6         1 NDK       0.081000
     17 C25        -27.8850    20.9790   -20.7230 ca         1 NDK      -0.094000
     18 N07        -26.4260    21.4370   -18.4150 nb         1 NDK      -0.657000
     19 N10        -26.2160    23.8300   -23.7840 n          1 NDK      -0.422800
     20 N13        -24.6060    25.3640   -25.5430 nh         1 NDK      -0.783300
     21 N15        -24.7680    27.1180   -27.0290 nb         1 NDK      -0.412000
     22 N16        -24.4570    27.7330   -28.1420 nb         1 NDK      -0.227000
     23 N19        -23.0720    28.5380   -31.1330 n1         1 NDK      -0.436000
     24 O24        -27.4010    24.0060   -21.8640 o          1 NDK      -0.584100
     25 H1         -22.2220    25.5620   -29.4260 ha         1 NDK       0.139000
     26 H2         -22.7800    24.3820   -27.3380 ha         1 NDK       0.130000
     27 H3         -23.4800    23.5920   -25.7470 h1         1 NDK       0.069450
     28 H4         -23.5230    24.2830   -24.1240 h1         1 NDK       0.069450
     29 H5         -29.6610    21.0800   -15.5150 hc         1 NDK       0.040700
     30 H6         -29.2530    22.3540   -16.6720 hc         1 NDK       0.040700
     31 H7         -30.2460    20.9800   -17.1780 hc         1 NDK       0.040700
     32 H8         -27.3310    20.8260   -16.2580 hc         1 NDK       0.071700
     33 H9         -28.5800    18.7710   -15.7200 hc         1 NDK       0.040700
     34 H10        -29.1080    18.6100   -17.3970 hc         1 NDK       0.040700
     35 H11        -27.3920    18.4550   -16.9910 hc         1 NDK       0.040700
     36 H12        -24.9670    22.2410   -19.6270 h4         1 NDK       0.020100
     37 H13        -26.2730    21.2750   -22.8890 hc         1 NDK       0.066200
     38 H14        -24.9750    22.1000   -22.0450 hc         1 NDK       0.066200
     39 H15        -27.3390    25.5640   -23.5470 h1         1 NDK       0.067700
     40 H16        -27.2970    24.9210   -25.2000 h1         1 NDK       0.067700
     41 H17        -25.0000    26.2850   -23.7130 h1         1 NDK       0.069450
     42 H18        -25.9040    26.9380   -25.0900 h1         1 NDK       0.069450
     43 H19        -25.8070    22.8930   -25.6040 h1         1 NDK       0.067700
     44 H20        -24.8880    22.2610   -24.2360 h1         1 NDK       0.067700
     45 H21        -28.4840    20.7850   -21.6040 ha         1 NDK       0.136000
     46 C09        -26.6190    23.3740   -22.5750 c          1 NDK       0.602100
     47 F01        -29.5810    20.0450   -19.4000 f          1 NDK      -0.175000
     48 C02        -28.1290    20.5060   -16.9310 c3         1 NDK      -0.112000
@<TRIPOS>BOND
     1     1     2 ar  
     2     1    15 1   
     3     1    22 ar  
     4     2     3 ar  
     5     2    25 1   
     6     3    14 ar  
     7     3    26 1   
     8     4    16 1   
     9     4    20 1   
    10     4    27 1   
    11     4    28 1   
    12     5     8 ar  
    13     5    17 ar  
    14     5    47 1   
    15     6    29 1   
    16     6    30 1   
    17     6    31 1   
    18     6    48 1   
    19     7    33 1   
    20     7    34 1   
    21     7    35 1   
    22     7    48 1   
    23     8    18 ar  
    24     8    48 1   
    25     9    10 ar  
    26     9    18 ar  
    27     9    36 1   
    28    10    11 1   
    29    10    17 ar  
    30    11    37 1   
    31    11    38 1   
    32    11    46 1   
    33    12    13 1   
    34    12    19 1   
    35    12    39 1   
    36    12    40 1   
    37    13    20 1   
    38    13    41 1   
    39    13    42 1   
    40    14    20 1   
    41    14    21 ar  
    42    15    23 3   
    43    16    19 1   
    44    16    43 1   
    45    16    44 1   
    46    17    45 1   
    47    19    46 1   
    48    21    22 ar  
    49    24    46 2   
    50    32    48 1   
@<TRIPOS>SUBSTRUCTURE
     1 NDK         1 TEMP              0 ****  ****    0 ROOT
