@<TRIPOS>MOLECULE
NDM
   27    28     1     0     0
SMALL
No Charge or Current Charge


@<TRIPOS>ATOM
      1 CN9          1.3160    -2.3520    -0.9550 c3         1 NDM       0.041900
      2 N9           0.8920    -1.0840    -1.5650 na         1 NDM      -0.015700
      3 C4           0.6500    -0.8500    -2.9160 cc         1 NDM      -0.010200
      4 N3           0.7610    -1.7260    -3.9670 nu         1 NDM      -0.285800
      5 C2           0.3030    -1.2950    -5.2810 c6         1 NDM       0.526700
      6 N2           1.1940    -1.8780    -6.2250 n8         1 NDM      -0.980200
      7 N1           0.5390     0.1190    -5.4860 n7         1 NDM      -0.908400
      8 C6          -0.0310     0.9940    -4.4650 c6         1 NDM       0.494800
      9 O6          -1.4090     0.9410    -4.7390 oh         1 NDM      -0.682000
     10 C5           0.2770     0.4490    -3.0930 cd         1 NDM      -0.232300
     11 N7           0.3110     1.0390    -1.8500 na         1 NDM       0.120000
     12 CN7          0.0110     2.4540    -1.5860 c3         1 NDM       0.039900
     13 C8           0.6740     0.1150    -0.8970 cc         1 NDM      -0.076300
     14 HN91         1.4930    -2.2110     0.1180 h1         1 NDM       0.087700
     15 HN92         2.2430    -2.6970    -1.4290 h1         1 NDM       0.087700
     16 HN93         0.5330    -3.1070    -1.0940 h1         1 NDM       0.087700
     17 H22         -0.7290    -1.6220    -5.4670 h3         1 NDM       0.011700
     18 HN21         0.7490    -1.8010    -7.1410 hn         1 NDM       0.423500
     19 HN22         1.2020    -2.8860    -6.0580 hn         1 NDM       0.423500
     20 HN11         0.0370     0.3700    -6.3330 hn         1 NDM       0.470000
     21 H66          0.3540     2.0200    -4.6020 h2         1 NDM       0.086700
     22 HN71        -1.0680     2.6230    -1.6690 h1         1 NDM       0.090700
     23 HN72         0.5380     3.0850    -2.3110 h1         1 NDM       0.090700
     24 HN73         0.3400     2.7210    -0.5750 h1         1 NDM       0.090700
     25 HC81         0.7810     0.2940     0.1660 h5         1 NDM       0.226000
     26 HN1          0.8400    -2.7140    -3.7590 hn         1 NDM       0.320000
     27 HO1         -1.8350     1.4150    -3.9960 ho         1 NDM       0.471000
@<TRIPOS>BOND
     1     1     2 1   
     2     1    14 1   
     3     1    15 1   
     4     1    16 1   
     5     2     3 1   
     6     2    13 2   
     7     3     4 1   
     8     3    10 2   
     9     4     5 1   
    10     4    26 1   
    11     5     6 1   
    12     5     7 1   
    13     5    17 1   
    14     6    18 1   
    15     6    19 1   
    16     7     8 1   
    17     7    20 1   
    18     8     9 1   
    19     8    10 1   
    20     8    21 1   
    21     9    27 1   
    22    10    11 1   
    23    11    12 1   
    24    11    13 1   
    25    12    22 1   
    26    12    23 1   
    27    12    24 1   
    28    13    25 1   
@<TRIPOS>SUBSTRUCTURE
     1 NDM         1 TEMP              0 ****  ****    0 ROOT
