@<TRIPOS>MOLECULE
NDM
   27    28     1     0     0
SMALL
abcg2


@<TRIPOS>ATOM
      1 CN9          1.4960    -2.2880    -1.0020 c3         1 NDM       0.041900
      2 N9           1.0060    -1.0590    -1.5980 na         1 NDM      -0.015700
      3 C4           0.7810    -0.8540    -2.9310 cc         1 NDM      -0.010200
      4 N3           1.0150    -1.7280    -3.9530 nu         1 NDM      -0.285800
      5 C2           0.3230    -1.2880    -5.1710 c6         1 NDM       0.526700
      6 N2           0.8600    -2.0140    -6.2890 n8         1 NDM      -0.980200
      7 N1           0.6170     0.1220    -5.3460 n7         1 NDM      -0.908400
      8 C6           0.0100     1.0190    -4.3940 c6         1 NDM       0.494800
      9 O6          -1.3890     1.1820    -4.4790 oh         1 NDM      -0.682000
     10 C5           0.3220     0.4170    -3.0730 cd         1 NDM      -0.232300
     11 N7           0.2670     0.9620    -1.8140 na         1 NDM       0.120000
     12 CN7         -0.1890     2.3030    -1.4970 c3         1 NDM       0.039900
     13 C8           0.6780     0.0600    -0.9450 cc         1 NDM      -0.076300
     14 HN91         1.6690    -2.1230     0.0570 h1         1 NDM       0.087700
     15 HN92         2.4310    -2.5750    -1.4760 h1         1 NDM       0.087700
     16 HN93         0.7620    -3.0810    -1.1230 h1         1 NDM       0.087700
     17 H22         -0.7600    -1.4570    -5.0310 h3         1 NDM       0.011700
     18 HN21         0.3130    -1.7920    -7.1140 hn         1 NDM       0.423500
     19 HN22         0.7190    -3.0070    -6.1420 hn         1 NDM       0.423500
     20 HN11         0.4430     0.4150    -6.2980 hn         1 NDM       0.470000
     21 H66          0.5050     1.9900    -4.5130 h2         1 NDM       0.086700
     22 HN71        -1.2300     2.4120    -1.7870 h1         1 NDM       0.090700
     23 HN72         0.4170     3.0310    -2.0300 h1         1 NDM       0.090700
     24 HN73        -0.0900     2.4680    -0.4290 h1         1 NDM       0.090700
     25 HC81         0.7390     0.1960     0.1220 h5         1 NDM       0.226000
     26 HN1          0.8350    -2.6990    -3.7290 hn         1 NDM       0.320000
     27 HO1         -1.5810     1.8030    -5.1900 ho         1 NDM       0.471000
@<TRIPOS>BOND
     1     1     2 1   
     2     1    14 1   
     3     1    15 1   
     4     1    16 1   
     5     2     3 1   
     6     2    13 2   
     7     3     4 1   
     8     3    10 2   
     9     4     5 1   
    10     4    26 1   
    11     5     6 1   
    12     5     7 1   
    13     5    17 1   
    14     6    18 1   
    15     6    19 1   
    16     7     8 1   
    17     7    20 1   
    18     8     9 1   
    19     8    10 1   
    20     8    21 1   
    21     9    27 1   
    22    10    11 1   
    23    11    12 1   
    24    11    13 1   
    25    12    22 1   
    26    12    23 1   
    27    12    24 1   
    28    13    25 1   
@<TRIPOS>SUBSTRUCTURE
     1 NDM         1 TEMP              0 ****  ****    0 ROOT
