@<TRIPOS>MOLECULE
NDR
   48    51     1     0     0
SMALL
No Charge or Current Charge


@<TRIPOS>ATOM
      1 O22         -6.0490     0.4890    -1.0580 o          1 NDR      -0.529100
      2 C21         -5.0050     0.3770    -0.4310 c          1 NDR       0.575300
      3 C20         -4.4760     1.4810     0.4820 c6         1 NDR      -0.181400
      4 C19         -4.1830    -0.8550    -0.4640 ce         1 NDR      -0.319200
      5 C17         -2.9040    -0.9080    -0.0220 c2         1 NDR      -0.035400
      6 C15         -2.1340    -2.2230    -0.0270 c6         1 NDR      -0.052200
      7 C14         -2.1810     0.3050     0.6010 c6         1 NDR      -0.032500
      8 C18         -2.9490     1.6390     0.3240 c6         1 NDR      -0.065400
      9 C8          -0.6860     0.4080     0.1300 c6         1 NDR      -0.052700
     10 C3           0.0530    -0.9660     0.2840 c6         1 NDR      -0.044700
     11 C9          -0.6860    -2.0590    -0.5270 c6         1 NDR      -0.069400
     12 C13          0.0920     1.5580     0.8610 c6         1 NDR      -0.072400
     13 C6           1.5870     1.6410     0.4320 c6         1 NDR      -0.060400
     14 C2           2.3250     0.2740     0.6130 c5         1 NDR      -0.022000
     15 C1           1.5340    -0.8200    -0.1720 c5         1 NDR      -0.066700
     16 C7           2.4460     0.0060     2.1610 c3         1 NDR      -0.075100
     17 C5           3.7290     0.1230    -0.1130 c5         1 NDR       0.268100
     18 O12          4.7840     0.7560     0.5960 oh         1 NDR      -0.640000
     19 C10          3.9160    -1.4400    -0.1370 c5         1 NDR      -0.104400
     20 C4           2.4720    -2.0550    -0.0480 c5         1 NDR      -0.063400
     21 C11          3.8080     0.6930    -1.4830 c1         1 NDR      -0.174100
     22 C16          3.9190     1.1430    -2.6020 c1         1 NDR      -0.230000
     23 H201        -5.0310     2.4140     0.3220 hc         1 NDR       0.068700
     24 H202        -4.6450     1.1420     1.5120 hc         1 NDR       0.068700
     25 H19         -4.6610    -1.7200    -0.9190 ha         1 NDR       0.195000
     26 H151        -2.1230    -2.6310     0.9930 hc         1 NDR       0.053700
     27 H152        -2.6490    -2.9690    -0.6470 hc         1 NDR       0.053700
     28 H181        -2.7330     1.9890    -0.6960 hc         1 NDR       0.049200
     29 H182        -2.6040     2.4270     1.0060 hc         1 NDR       0.049200
     30 H91         -0.1650    -3.0220    -0.4380 hc         1 NDR       0.046200
     31 H92         -0.6910    -1.8010    -1.5950 hc         1 NDR       0.046200
     32 H131        -0.3680     2.5280     0.6340 hc         1 NDR       0.040700
     33 H132         0.0090     1.4390     1.9490 hc         1 NDR       0.040700
     34 H61          1.6140     1.9590    -0.6190 hc         1 NDR       0.051200
     35 H62          2.1010     2.4310     0.9980 hc         1 NDR       0.051200
     36 H71          1.4750    -0.1170     2.6510 hc         1 NDR       0.037033
     37 H72          3.0270    -0.8920     2.3950 hc         1 NDR       0.037033
     38 H73          2.9500     0.8400     2.6640 hc         1 NDR       0.037033
     39 H12          5.4340     1.0130    -0.0910 ho         1 NDR       0.449000
     40 H101         4.4420    -1.7810    -1.0360 hc         1 NDR       0.052700
     41 H102         4.5220    -1.7840     0.7100 hc         1 NDR       0.052700
     42 H41          2.3210    -2.5850     0.9000 hc         1 NDR       0.044700
     43 H42          2.2920    -2.7840    -0.8460 hc         1 NDR       0.044700
     44 H16          4.0050     1.5380    -3.5960 ha         1 NDR       0.255000
     45 H23         -2.1800     0.1430     1.6880 hc         1 NDR       0.060700
     46 H24         -0.6960     0.6550    -0.9420 hc         1 NDR       0.051700
     47 H25          0.0340    -1.2650     1.3410 hc         1 NDR       0.051700
     48 H26          1.4480    -0.5490    -1.2320 hc         1 NDR       0.055700
@<TRIPOS>BOND
     1     1     2 2   
     2     2     3 1   
     3     2     4 1   
     4     3     8 1   
     5     3    23 1   
     6     3    24 1   
     7     4     5 2   
     8     4    25 1   
     9     5     6 1   
    10     5     7 1   
    11     6    11 1   
    12     6    26 1   
    13     6    27 1   
    14     7     8 1   
    15     7     9 1   
    16     7    45 1   
    17     8    28 1   
    18     8    29 1   
    19     9    10 1   
    20     9    12 1   
    21     9    46 1   
    22    10    11 1   
    23    10    15 1   
    24    10    47 1   
    25    11    30 1   
    26    11    31 1   
    27    12    13 1   
    28    12    32 1   
    29    12    33 1   
    30    13    14 1   
    31    13    34 1   
    32    13    35 1   
    33    14    15 1   
    34    14    16 1   
    35    14    17 1   
    36    15    20 1   
    37    15    48 1   
    38    16    36 1   
    39    16    37 1   
    40    16    38 1   
    41    17    18 1   
    42    17    19 1   
    43    17    21 1   
    44    18    39 1   
    45    19    20 1   
    46    19    40 1   
    47    19    41 1   
    48    20    42 1   
    49    20    43 1   
    50    21    22 3   
    51    22    44 1   
@<TRIPOS>SUBSTRUCTURE
     1 NDR         1 TEMP              0 ****  ****    0 ROOT
