@<TRIPOS>MOLECULE
NDR
   48    51     1     0     0
SMALL
bcc


@<TRIPOS>ATOM
      1 O22         -6.0140     0.4480    -0.9350 o          1 NDR      -0.529100
      2 C21         -4.9160     0.3830    -0.4090 c          1 NDR       0.575300
      3 C20         -4.3800     1.4680     0.4840 c6         1 NDR      -0.181400
      4 C19         -4.0690    -0.8000    -0.5410 ce         1 NDR      -0.269200
      5 C17         -2.8330    -0.8820    -0.0180 c2         1 NDR      -0.035400
      6 C15         -2.1010    -2.1860     0.0070 c6         1 NDR      -0.052200
      7 C14         -2.1310     0.2930     0.6110 c6         1 NDR      -0.032500
      8 C18         -2.8710     1.6030     0.3440 c6         1 NDR      -0.065400
      9 C8          -0.6650     0.3720     0.1350 c6         1 NDR      -0.052700
     10 C3           0.0710    -0.9670     0.3050 c6         1 NDR      -0.044700
     11 C9          -0.6560    -2.0630    -0.4630 c6         1 NDR      -0.069400
     12 C13          0.0820     1.5270     0.8120 c6         1 NDR      -0.072400
     13 C6           1.5480     1.6250     0.3840 c6         1 NDR      -0.060400
     14 C2           2.2700     0.2980     0.5820 c5         1 NDR      -0.022000
     15 C1           1.5050    -0.7970    -0.1720 c5         1 NDR      -0.066700
     16 C7           2.4080    -0.0020     2.0790 c3         1 NDR      -0.075100
     17 C5           3.6670     0.1590    -0.0800 c5         1 NDR       0.244900
     18 O12          4.6380     0.8400     0.6750 oh         1 NDR      -0.577800
     19 C10          3.8650    -1.3830    -0.1340 c5         1 NDR      -0.104400
     20 C4           2.4490    -2.0000    -0.1500 c5         1 NDR      -0.063400
     21 C11          3.6680     0.6950    -1.4530 c1         1 NDR      -0.174100
     22 C16          3.7300     1.1200    -2.5760 c1         1 NDR      -0.142500
     23 H201        -4.8840     2.4110     0.2680 hc         1 NDR       0.068700
     24 H202        -4.6340     1.1960     1.5150 hc         1 NDR       0.068700
     25 H19         -4.5110    -1.6650    -1.0260 ha         1 NDR       0.145000
     26 H151        -2.0950    -2.5340     1.0480 hc         1 NDR       0.053700
     27 H152        -2.6400    -2.9380    -0.5710 hc         1 NDR       0.053700
     28 H181        -2.6310     1.9440    -0.6680 hc         1 NDR       0.049200
     29 H182        -2.5210     2.3790     1.0240 hc         1 NDR       0.049200
     30 H91         -0.1560    -3.0240    -0.3250 hc         1 NDR       0.046200
     31 H92         -0.6270    -1.8420    -1.5350 hc         1 NDR       0.046200
     32 H131        -0.4010     2.4750     0.5690 hc         1 NDR       0.040700
     33 H132         0.0040     1.4190     1.8990 hc         1 NDR       0.040700
     34 H61          1.5850     1.9080    -0.6730 hc         1 NDR       0.051200
     35 H62          2.0410     2.4290     0.9380 hc         1 NDR       0.051200
     36 H71          1.4390    -0.1850     2.5410 hc         1 NDR       0.037033
     37 H72          3.0250    -0.8750     2.2890 hc         1 NDR       0.037033
     38 H73          2.8560     0.8430     2.6030 hc         1 NDR       0.037033
     39 H12          5.5070     0.6500     0.3060 ho         1 NDR       0.410000
     40 H101         4.4590    -1.6780    -0.9990 hc         1 NDR       0.052700
     41 H102         4.4210    -1.6950     0.7510 hc         1 NDR       0.052700
     42 H41          2.2870    -2.6130     0.7410 hc         1 NDR       0.044700
     43 H42          2.2990    -2.6540    -1.0100 hc         1 NDR       0.044700
     44 H16          3.7760     1.5030    -3.5700 ha         1 NDR       0.167500
     45 H23         -2.1190     0.1040     1.6960 hc         1 NDR       0.060700
     46 H24         -0.6920     0.5830    -0.9450 hc         1 NDR       0.051700
     47 H25          0.0600    -1.2440     1.3680 hc         1 NDR       0.051700
     48 H26          1.4280    -0.4620    -1.2160 hc         1 NDR       0.055700
@<TRIPOS>BOND
     1     1     2 2   
     2     2     3 1   
     3     2     4 1   
     4     3     8 1   
     5     3    23 1   
     6     3    24 1   
     7     4     5 2   
     8     4    25 1   
     9     5     6 1   
    10     5     7 1   
    11     6    11 1   
    12     6    26 1   
    13     6    27 1   
    14     7     8 1   
    15     7     9 1   
    16     7    45 1   
    17     8    28 1   
    18     8    29 1   
    19     9    10 1   
    20     9    12 1   
    21     9    46 1   
    22    10    11 1   
    23    10    15 1   
    24    10    47 1   
    25    11    30 1   
    26    11    31 1   
    27    12    13 1   
    28    12    32 1   
    29    12    33 1   
    30    13    14 1   
    31    13    34 1   
    32    13    35 1   
    33    14    15 1   
    34    14    16 1   
    35    14    17 1   
    36    15    20 1   
    37    15    48 1   
    38    16    36 1   
    39    16    37 1   
    40    16    38 1   
    41    17    18 1   
    42    17    19 1   
    43    17    21 1   
    44    18    39 1   
    45    19    20 1   
    46    19    40 1   
    47    19    41 1   
    48    20    42 1   
    49    20    43 1   
    50    21    22 3   
    51    22    44 1   
@<TRIPOS>SUBSTRUCTURE
     1 NDR         1 TEMP              0 ****  ****    0 ROOT
