@<TRIPOS>MOLECULE
NDS
   29    28     1     0     0
SMALL
bcc


@<TRIPOS>ATOM
      1 O3          -2.8860    -0.6620    -1.1890 o          1 NDS      -0.673867
      2 S1          -2.8250     0.1650     0.0320 s6         1 NDS       1.198800
      3 O1          -2.8450    -0.6360     1.2730 o          1 NDS      -0.673867
      4 O2          -3.8020     1.2700     0.0370 o          1 NDS      -0.673867
      5 C4          -1.2090     0.9640    -0.0010 c3         1 NDS      -0.252600
      6 C3          -0.0730    -0.0480    -0.0020 c3         1 NDS      -0.054400
      7 C2           1.2480     0.7010     0.0010 c3         1 NDS       0.128800
      8 N1           2.4880    -0.1590     0.0040 n4         1 NDS      -0.614800
      9 C1           2.5070    -1.0330     1.2080 c3         1 NDS       0.105100
     10 C7           2.5380    -1.0000    -1.2220 c3         1 NDS       0.105100
     11 C5           3.6640     0.7900     0.0330 c3         1 NDS       0.126800
     12 C6           5.0300     0.1400     0.0060 c3         1 NDS      -0.121100
     13 H41         -1.1530     1.6160     0.8740 h1         1 NDS       0.077200
     14 H42         -1.1760     1.5950    -0.8910 h1         1 NDS       0.077200
     15 H31         -0.1650    -0.6850    -0.8820 hc         1 NDS       0.072200
     16 H32         -0.1650    -0.6820     0.8800 hc         1 NDS       0.072200
     17 H21          1.3200     1.3370     0.8830 hx         1 NDS       0.082200
     18 H22          1.3250     1.3380    -0.8810 hx         1 NDS       0.082200
     19 H11          2.4570    -0.4130     2.1000 hx         1 NDS       0.092533
     20 H12          1.6600    -1.7100     1.1790 hx         1 NDS       0.092533
     21 H13          3.4200    -1.6190     1.2160 hx         1 NDS       0.092533
     22 H71          3.4410    -1.6010    -1.2120 hx         1 NDS       0.092533
     23 H72          1.6790    -1.6630    -1.2420 hx         1 NDS       0.092533
     24 H73          2.5310    -0.3560    -2.0980 hx         1 NDS       0.092533
     25 H51          3.5460     1.3910     0.9340 hx         1 NDS       0.089200
     26 H52          3.5410     1.4470    -0.8270 hx         1 NDS       0.089200
     27 H61          5.7640     0.9420     0.0620 hc         1 NDS       0.067033
     28 H62          5.2060    -0.5170     0.8560 hc         1 NDS       0.067033
     29 H63          5.2210    -0.4090    -0.9140 hc         1 NDS       0.067033
@<TRIPOS>BOND
     1     1     2 1   
     2     2     3 1   
     3     2     4 1   
     4     2     5 1   
     5     5     6 1   
     6     5    13 1   
     7     5    14 1   
     8     6     7 1   
     9     6    15 1   
    10     6    16 1   
    11     7     8 1   
    12     7    17 1   
    13     7    18 1   
    14     8     9 1   
    15     8    10 1   
    16     8    11 1   
    17     9    19 1   
    18     9    20 1   
    19     9    21 1   
    20    10    22 1   
    21    10    23 1   
    22    10    24 1   
    23    11    12 1   
    24    11    25 1   
    25    11    26 1   
    26    12    27 1   
    27    12    28 1   
    28    12    29 1   
@<TRIPOS>SUBSTRUCTURE
     1 NDS         1 TEMP              0 ****  ****    0 ROOT
