@<TRIPOS>MOLECULE
NDS
   29    28     1     0     0
SMALL
No Charge or Current Charge


@<TRIPOS>ATOM
      1 O3          -2.9420    -0.6030    -1.2380 o          1 NDS      -0.673867
      2 S1          -2.9390     0.1760     0.0080 s6         1 NDS       1.309600
      3 O1          -2.9430    -0.6310     1.2370 o          1 NDS      -0.673867
      4 O2          -3.8700     1.3130     0.0200 o          1 NDS      -0.673867
      5 C4          -1.3110     0.9670     0.0170 c3         1 NDS      -0.363400
      6 C3          -0.1250    -0.0300     0.0070 c3         1 NDS      -0.054400
      7 C2           1.2380     0.6950     0.0150 c3         1 NDS       0.100600
      8 N1           2.5160    -0.1610     0.0060 n4         1 NDS      -0.502000
      9 C1           2.5520    -1.0620     1.2520 c3         1 NDS       0.076900
     10 C7           2.5530    -1.0330    -1.2610 c3         1 NDS       0.076900
     11 C5           3.7220     0.7930     0.0170 c3         1 NDS       0.098600
     12 C6           5.1310     0.1680     0.0100 c3         1 NDS      -0.121100
     13 H41         -1.2820     1.5910     0.9170 h1         1 NDS       0.077200
     14 H42         -1.2810     1.6100    -0.8690 h1         1 NDS       0.077200
     15 H31         -0.1920    -0.6670    -0.8830 hc         1 NDS       0.072200
     16 H32         -0.1920    -0.6870     0.8820 hc         1 NDS       0.072200
     17 H21          1.2810     1.3280     0.9040 hx         1 NDS       0.082200
     18 H22          1.2820     1.3480    -0.8590 hx         1 NDS       0.082200
     19 H11          2.5230    -0.4380     2.1480 hx         1 NDS       0.092533
     20 H12          1.6900    -1.7310     1.2410 hx         1 NDS       0.092533
     21 H13          3.4700    -1.6530     1.2440 hx         1 NDS       0.092533
     22 H71          3.4700    -1.6240    -1.2660 hx         1 NDS       0.092533
     23 H72          1.6910    -1.7020    -1.2650 hx         1 NDS       0.092533
     24 H73          2.5240    -0.3890    -2.1420 hx         1 NDS       0.092533
     25 H51          3.6290     1.4220     0.9060 hx         1 NDS       0.089200
     26 H52          3.6290     1.4420    -0.8570 hx         1 NDS       0.089200
     27 H61          5.8900     0.9590     0.0200 hc         1 NDS       0.067033
     28 H62          5.2880    -0.4610     0.8930 hc         1 NDS       0.067033
     29 H63          5.2880    -0.4400    -0.8870 hc         1 NDS       0.067033
@<TRIPOS>BOND
     1     1     2 1   
     2     2     3 1   
     3     2     4 1   
     4     2     5 1   
     5     5     6 1   
     6     5    13 1   
     7     5    14 1   
     8     6     7 1   
     9     6    15 1   
    10     6    16 1   
    11     7     8 1   
    12     7    17 1   
    13     7    18 1   
    14     8     9 1   
    15     8    10 1   
    16     8    11 1   
    17     9    19 1   
    18     9    20 1   
    19     9    21 1   
    20    10    22 1   
    21    10    23 1   
    22    10    24 1   
    23    11    12 1   
    24    11    25 1   
    25    11    26 1   
    26    12    27 1   
    27    12    28 1   
    28    12    29 1   
@<TRIPOS>SUBSTRUCTURE
     1 NDS         1 TEMP              0 ****  ****    0 ROOT
