@<TRIPOS>MOLECULE
NDY
   38    39     1     0     0
SMALL
bcc


@<TRIPOS>ATOM
      1 CAK         -4.0450     0.9430     0.0070 ca         1 NDY      -0.122500
      2 CAI         -5.4020     0.7900     0.2590 ca         1 NDY      -0.133500
      3 CAH         -6.0160    -0.4370     0.0400 ca         1 NDY      -0.143000
      4 CAJ         -5.2630    -1.5040    -0.4310 ca         1 NDY      -0.133500
      5 CAL         -3.9050    -1.3450    -0.6770 ca         1 NDY      -0.122500
      6 CAQ         -3.2780    -0.1210    -0.4640 ca         1 NDY      -0.053300
      7 CAM         -1.8060     0.0560    -0.7000 c3         1 NDY      -0.074100
      8 CAR         -0.9960    -0.0840     0.6000 c3         1 NDY       0.209300
      9 OAC         -1.2240    -1.3310     1.2050 oh         1 NDY      -0.596800
     10 CAP          0.4740     0.2040     0.3600 c2         1 NDY      -0.209400
     11 CAG          1.4220    -0.6930     0.6200 c2         1 NDY      -0.058200
     12 CAU          2.8960    -0.4780     0.4020 c6         1 NDY       0.029000
     13 CAO          3.5180    -1.7400    -0.2590 c          1 NDY       0.911600
     14 OAB          4.4810    -2.2350     0.3700 o          1 NDY      -0.810800
     15 OAA          3.0280    -2.1350    -1.3250 o          1 NDY      -0.810800
     16 OAF          3.5140    -0.2950     1.6590 oh         1 NDY      -0.637800
     17 CAN          3.1260     0.7370    -0.4980 c6         1 NDY      -0.097400
     18 CAS          2.2710     1.9020    -0.0360 c6         1 NDY       0.106100
     19 OAD          2.5090     3.0850    -0.7740 oh         1 NDY      -0.630800
     20 CAT          0.8040     1.5550    -0.2290 c6         1 NDY       0.205300
     21 OAE         -0.0420     2.5180     0.3640 oh         1 NDY      -0.610800
     22 HAK         -3.5740     1.9050     0.1770 ha         1 NDY       0.131000
     23 HAI         -5.9800     1.6310     0.6210 ha         1 NDY       0.119500
     24 HAH         -7.0750    -0.5590     0.2310 ha         1 NDY       0.117000
     25 HAJ         -5.7320    -2.4640    -0.6070 ha         1 NDY       0.119500
     26 HAL         -3.3300    -2.1850    -1.0500 ha         1 NDY       0.131000
     27 HAM1        -1.4440    -0.6770    -1.4280 hc         1 NDY       0.057200
     28 HAM2        -1.6230     1.0420    -1.1290 hc         1 NDY       0.057200
     29 HAR         -1.3800     0.6520     1.3130 h1         1 NDY       0.082700
     30 HAC         -1.0150    -2.0260     0.5710 ho         1 NDY       0.401000
     31 HAG          1.1450    -1.6460     1.0600 ha         1 NDY       0.130000
     32 HAT          0.6220     1.5100    -1.3160 h1         1 NDY       0.033700
     33 HAF          4.2030    -0.9890     1.6440 ho         1 NDY       0.439000
     34 HAN1         4.1870     1.0050    -0.4840 hc         1 NDY       0.053700
     35 HAN2         2.8660     0.4870    -1.5310 hc         1 NDY       0.053700
     36 HAS          2.4450     2.0760     1.0360 h1         1 NDY       0.056700
     37 HAD          3.3900     3.4060    -0.5580 ho         1 NDY       0.400000
     38 HAE          0.0990     3.3540    -0.0920 ho         1 NDY       0.401000
@<TRIPOS>BOND
     1     1     2 ar  
     2     1     6 ar  
     3     1    22 1   
     4     2     3 ar  
     5     2    23 1   
     6     3     4 ar  
     7     3    24 1   
     8     4     5 ar  
     9     4    25 1   
    10     5     6 ar  
    11     5    26 1   
    12     6     7 1   
    13     7     8 1   
    14     7    27 1   
    15     7    28 1   
    16     8     9 1   
    17     8    10 1   
    18     8    29 1   
    19     9    30 1   
    20    10    11 2   
    21    10    20 1   
    22    11    12 1   
    23    11    31 1   
    24    12    13 1   
    25    12    16 1   
    26    12    17 1   
    27    13    14 1   
    28    13    15 1   
    29    16    33 1   
    30    17    18 1   
    31    17    34 1   
    32    17    35 1   
    33    18    19 1   
    34    18    20 1   
    35    18    36 1   
    36    19    37 1   
    37    20    21 1   
    38    20    32 1   
    39    21    38 1   
@<TRIPOS>SUBSTRUCTURE
     1 NDY         1 TEMP              0 ****  ****    0 ROOT
