@<TRIPOS>MOLECULE
NDY
   38    39     1     0     0
SMALL
No Charge or Current Charge


@<TRIPOS>ATOM
      1 CAK         -4.0630     0.7140    -0.4200 ca         1 NDY      -0.104500
      2 CAI         -5.4560     0.5880    -0.2730 ca         1 NDY      -0.115500
      3 CAH         -6.0390    -0.6860    -0.1700 ca         1 NDY      -0.125000
      4 CAJ         -5.2300    -1.8330    -0.2150 ca         1 NDY      -0.115500
      5 CAL         -3.8370    -1.7070    -0.3620 ca         1 NDY      -0.104500
      6 CAQ         -3.2460    -0.4320    -0.4630 ca         1 NDY      -0.053300
      7 CAM         -1.7350    -0.2900    -0.6170 c3         1 NDY      -0.074100
      8 CAR         -1.0460     0.2450     0.6590 c3         1 NDY       0.232500
      9 OAC         -1.2680    -0.6780     1.7330 oh         1 NDY      -0.659000
     10 CAP          0.4540     0.4390     0.4460 c2         1 NDY      -0.209400
     11 CAG          1.3260    -0.5950     0.4330 c2         1 NDY      -0.108200
     12 CAU          2.8220    -0.4950     0.1010 c6         1 NDY       0.052200
     13 CAO          3.3000    -1.6740    -0.8550 c          1 NDY       0.701000
     14 OAB          4.2500    -2.3320    -0.4410 o          1 NDY      -0.705500
     15 OAA          2.4780    -2.1610    -1.6210 o          1 NDY      -0.705500
     16 OAF          3.5450    -0.5820     1.3540 oh         1 NDY      -0.700000
     17 CAN          3.1580     0.8720    -0.5620 c6         1 NDY      -0.097400
     18 CAS          2.4550     2.0340     0.1740 c6         1 NDY       0.129300
     19 OAD          2.8610     3.3020    -0.3760 oh         1 NDY      -0.693000
     20 CAT          0.9060     1.8620     0.0900 c6         1 NDY       0.228500
     21 OAE          0.2860     2.8450     0.9260 oh         1 NDY      -0.673000
     22 HAK         -3.6200     1.7050    -0.5000 ha         1 NDY       0.113000
     23 HAI         -6.0820     1.4770    -0.2390 ha         1 NDY       0.101500
     24 HAH         -7.1170    -0.7840    -0.0560 ha         1 NDY       0.099000
     25 HAJ         -5.6800    -2.8200    -0.1370 ha         1 NDY       0.101500
     26 HAL         -3.2190    -2.6020    -0.3960 ha         1 NDY       0.113000
     27 HAM1        -1.2830    -1.2500    -0.8970 hc         1 NDY       0.057200
     28 HAM2        -1.5170     0.3960    -1.4440 hc         1 NDY       0.057200
     29 HAR         -1.5190     1.2060     0.9060 h1         1 NDY       0.082700
     30 HAC         -2.2340    -0.8470     1.7510 ho         1 NDY       0.440000
     31 HAG          0.9720    -1.6060     0.6390 ha         1 NDY       0.180000
     32 HAT          0.6100     2.0420    -0.9550 h1         1 NDY       0.033700
     33 HAF          4.1730    -1.3320     1.1970 ho         1 NDY       0.478000
     34 HAN1         4.2460     1.0260    -0.5750 hc         1 NDY       0.053700
     35 HAN2         2.8340     0.8610    -1.6120 hc         1 NDY       0.053700
     36 HAS          2.7440     1.9860     1.2360 h1         1 NDY       0.056700
     37 HAD          3.8370     3.3560    -0.2710 ho         1 NDY       0.439000
     38 HAE          0.8020     3.6650     0.7600 ho         1 NDY       0.440000
@<TRIPOS>BOND
     1     1     2 ar  
     2     1     6 ar  
     3     1    22 1   
     4     2     3 ar  
     5     2    23 1   
     6     3     4 ar  
     7     3    24 1   
     8     4     5 ar  
     9     4    25 1   
    10     5     6 ar  
    11     5    26 1   
    12     6     7 1   
    13     7     8 1   
    14     7    27 1   
    15     7    28 1   
    16     8     9 1   
    17     8    10 1   
    18     8    29 1   
    19     9    30 1   
    20    10    11 2   
    21    10    20 1   
    22    11    12 1   
    23    11    31 1   
    24    12    13 1   
    25    12    16 1   
    26    12    17 1   
    27    13    14 1   
    28    13    15 1   
    29    16    33 1   
    30    17    18 1   
    31    17    34 1   
    32    17    35 1   
    33    18    19 1   
    34    18    20 1   
    35    18    36 1   
    36    19    37 1   
    37    20    21 1   
    38    20    32 1   
    39    21    38 1   
@<TRIPOS>SUBSTRUCTURE
     1 NDY         1 TEMP              0 ****  ****    0 ROOT
