@<TRIPOS>MOLECULE
NDZ
   35    36     1     0     0
SMALL
bcc


@<TRIPOS>ATOM
      1 O            4.3540    -1.6660     0.6200 o          1 NDZ      -0.866300
      2 C            4.0330    -0.5080     0.2800 c          1 NDZ       0.923600
      3 OXT          4.7200     0.5220     0.4340 o          1 NDZ      -0.866300
      4 CA           2.6320    -0.3130    -0.3400 c3         1 NDZ       0.034500
      5 N            2.1660    -1.5480    -0.9580 n8         1 NDZ      -0.886800
      6 CB           1.7140     0.2470     0.7590 c3         1 NDZ      -0.084400
      7 CAJ          0.3210     0.7330     0.3250 c5         1 NDZ       0.011800
      8 CAD          0.4830     1.8170    -0.7630 c          1 NDZ       0.952600
      9 OAA          0.9510     2.9020    -0.3550 o          1 NDZ      -0.828800
     10 OAE          0.1840     1.5270    -1.9310 o          1 NDZ      -0.828800
     11 CAR         -0.4550     1.2470     1.5630 c5         1 NDZ      -0.082400
     12 OAI         -0.4590    -0.3510    -0.1790 os         1 NDZ      -0.337600
     13 CAH         -1.3450    -0.7810     0.8160 c5         1 NDZ       0.130100
     14 CAQ         -1.7760     0.5090     1.5090 c5         1 NDZ       0.095100
     15 OAP         -2.6800     1.2470     0.7180 os         1 NDZ      -0.357600
     16 CAO         -3.8360     0.5180     0.3900 c6         1 NDZ       0.109400
     17 CAF         -3.5230    -0.6910    -0.4840 c6         1 NDZ       0.090100
     18 OAB         -3.0150    -0.3360    -1.7430 oh         1 NDZ      -0.505800
     19 CAG         -2.5170    -1.5670     0.2600 c6         1 NDZ       0.172100
     20 OAC         -2.0250    -2.6390    -0.5020 oh         1 NDZ      -0.540800
     21 HA           2.7290     0.4510    -1.1200 h1         1 NDZ       0.078700
     22 HN           2.3710    -2.3010    -0.3130 hn         1 NDZ       0.326800
     23 HNA          1.1580    -1.5110    -1.0420 hn         1 NDZ       0.326800
     24 HB           1.5950    -0.5170     1.5380 hc         1 NDZ       0.027700
     25 HBA          2.2130     1.0950     1.2340 hc         1 NDZ       0.027700
     26 HAR          0.0630     0.9780     2.4870 hc         1 NDZ       0.052700
     27 HARA        -0.5780     2.3290     1.5690 hc         1 NDZ       0.052700
     28 HAH         -0.8330    -1.4150     1.5610 h1         1 NDZ       0.025700
     29 HAQ         -2.2060     0.3140     2.5020 h1         1 NDZ       0.002700
     30 HAO         -4.3610     0.1790     1.2960 h1         1 NDZ       0.016700
     31 HAOA        -4.5110     1.2000    -0.1330 h1         1 NDZ       0.016700
     32 HAF         -4.4600    -1.2630    -0.5860 h1         1 NDZ      -0.021300
     33 HOAB        -3.7160     0.1150    -2.2250 ho         1 NDZ       0.374000
     34 HAG         -3.0590    -1.9320     1.1470 h1         1 NDZ      -0.010300
     35 HOAC        -2.7700    -3.1880    -0.7670 ho         1 NDZ       0.369000
@<TRIPOS>BOND
     1     1     2 1   
     2     2     3 1   
     3     2     4 1   
     4     4     5 1   
     5     4     6 1   
     6     4    21 1   
     7     5    22 1   
     8     5    23 1   
     9     6     7 1   
    10     6    24 1   
    11     6    25 1   
    12     7     8 1   
    13     7    11 1   
    14     7    12 1   
    15     8     9 1   
    16     8    10 1   
    17    11    14 1   
    18    11    26 1   
    19    11    27 1   
    20    12    13 1   
    21    13    14 1   
    22    13    19 1   
    23    13    28 1   
    24    14    15 1   
    25    14    29 1   
    26    15    16 1   
    27    16    17 1   
    28    16    30 1   
    29    16    31 1   
    30    17    18 1   
    31    17    19 1   
    32    17    32 1   
    33    18    33 1   
    34    19    20 1   
    35    19    34 1   
    36    20    35 1   
@<TRIPOS>SUBSTRUCTURE
     1 NDZ         1 TEMP              0 ****  ****    0 ROOT
