@<TRIPOS>MOLECULE
NDZ
   35    36     1     0     0
SMALL
No Charge or Current Charge


@<TRIPOS>ATOM
      1 O            4.6340    -0.9590     0.6660 o          1 NDZ      -0.761000
      2 C            4.1540    -0.1750    -0.1450 c          1 NDZ       0.713000
      3 OXT          4.8370     0.6180    -0.7820 o          1 NDZ      -0.761000
      4 CA           2.6020    -0.2570    -0.4610 c3         1 NDZ       0.034500
      5 N            2.0860    -1.5850    -0.9490 n8         1 NDZ      -0.997200
      6 CB           1.7610     0.2180     0.7600 c3         1 NDZ      -0.084400
      7 CAJ          0.2490     0.5210     0.5010 c5         1 NDZ       0.035000
      8 CAD          0.0590     1.5700    -0.6790 c          1 NDZ       0.742000
      9 OAA          0.6470     2.6440    -0.6290 o          1 NDZ      -0.723500
     10 OAE         -0.6280     1.2680    -1.6490 o          1 NDZ      -0.723500
     11 CAR         -0.4680     1.0870     1.7800 c5         1 NDZ      -0.082400
     12 OAI         -0.4580    -0.7260     0.1930 os         1 NDZ      -0.384000
     13 CAH         -1.5550    -0.9220     1.1220 c5         1 NDZ       0.153300
     14 CAQ         -1.8900     0.5020     1.6500 c5         1 NDZ       0.118300
     15 OAP         -2.6140     1.2710     0.6490 os         1 NDZ      -0.404000
     16 CAO         -3.7930     0.6620     0.0790 c6         1 NDZ       0.132600
     17 CAF         -3.4660    -0.7040    -0.5900 c6         1 NDZ       0.113300
     18 OAB         -2.6410    -0.5280    -1.7600 oh         1 NDZ      -0.628000
     19 CAG         -2.7790    -1.6290     0.4610 c6         1 NDZ       0.195300
     20 OAC         -2.4230    -2.8930    -0.1230 oh         1 NDZ      -0.663000
     21 HA           2.4340     0.4690    -1.2680 h1         1 NDZ       0.078700
     22 HN           2.3780    -2.3050    -0.2780 hn         1 NDZ       0.382000
     23 HNA          1.0630    -1.5640    -0.8410 hn         1 NDZ       0.382000
     24 HB           1.8540    -0.5230     1.5640 hc         1 NDZ       0.027700
     25 HBA          2.2320     1.1290     1.1490 hc         1 NDZ       0.027700
     26 HAR          0.0100     0.7280     2.6990 hc         1 NDZ       0.052700
     27 HARA        -0.4650     2.1820     1.8320 hc         1 NDZ       0.052700
     28 HAH         -1.1890    -1.5490     1.9450 h1         1 NDZ       0.025700
     29 HAQ         -2.4530     0.4970     2.5920 h1         1 NDZ       0.002700
     30 HAO         -4.5340     0.5160     0.8780 h1         1 NDZ       0.016700
     31 HAOA        -4.2270     1.3510    -0.6600 h1         1 NDZ       0.016700
     32 HAF         -4.4140    -1.1700    -0.8920 h1         1 NDZ      -0.021300
     33 HOAB        -1.9210     0.1250    -1.5250 ho         1 NDZ       0.473000
     34 HAG         -3.5110    -1.8140     1.2600 h1         1 NDZ      -0.010300
     35 HOAC        -2.0090    -2.6540    -0.9820 ho         1 NDZ       0.468000
@<TRIPOS>BOND
     1     1     2 1   
     2     2     3 1   
     3     2     4 1   
     4     4     5 1   
     5     4     6 1   
     6     4    21 1   
     7     5    22 1   
     8     5    23 1   
     9     6     7 1   
    10     6    24 1   
    11     6    25 1   
    12     7     8 1   
    13     7    11 1   
    14     7    12 1   
    15     8     9 1   
    16     8    10 1   
    17    11    14 1   
    18    11    26 1   
    19    11    27 1   
    20    12    13 1   
    21    13    14 1   
    22    13    19 1   
    23    13    28 1   
    24    14    15 1   
    25    14    29 1   
    26    15    16 1   
    27    16    17 1   
    28    16    30 1   
    29    16    31 1   
    30    17    18 1   
    31    17    19 1   
    32    17    32 1   
    33    18    33 1   
    34    19    20 1   
    35    19    34 1   
    36    20    35 1   
@<TRIPOS>SUBSTRUCTURE
     1 NDZ         1 TEMP              0 ****  ****    0 ROOT
