@<TRIPOS>MOLECULE
NE1
   23    24     1     0     0
SMALL
No Charge or Current Charge


@<TRIPOS>ATOM
      1 Cl18        -5.2160    -1.1880    -0.7780 cl         1 NE1      -0.159000
      2 C10         -3.4840    -0.9230    -0.5720 ca         1 NE1       0.125000
      3 C9          -2.9970     0.1710     0.1720 ca         1 NE1       0.113000
      4 Cl17        -4.1360     1.3010     0.9240 cl         1 NE1      -0.140000
      5 C8          -1.6050     0.3590     0.3210 ca         1 NE1       0.132000
      6 Cl16        -1.0200     1.7110     1.3030 cl         1 NE1      -0.156000
      7 C11         -2.5870    -1.8290    -1.1580 ca         1 NE1      -0.096000
      8 C12         -1.2040    -1.6440    -1.0110 ca         1 NE1      -0.085000
      9 C7          -0.6860    -0.5490    -0.2800 cp         1 NE1      -0.018000
     10 C4           0.7940    -0.3900    -0.1550 cp         1 NE1      -0.071000
     11 C3           1.5900    -1.4510     0.3400 ca         1 NE1      -0.038500
     12 C2           2.9860    -1.3210     0.4510 ca         1 NE1       0.045500
     13 Cl14         3.9210    -2.6780     1.0850 cl         1 NE1      -0.179500
     14 C5           1.4450     0.8020    -0.5560 ca         1 NE1      -0.038500
     15 C6           2.8390     0.9380    -0.4470 ca         1 NE1       0.045500
     16 Cl13         3.5960     2.4490    -0.9570 cl         1 NE1      -0.179500
     17 C1           3.6190    -0.1220     0.0590 ca         1 NE1       0.173100
     18 O15          4.9810     0.0110     0.1650 oh         1 NE1      -0.505100
     19 H11         -2.9660    -2.6740    -1.7280 ha         1 NE1       0.138000
     20 H12         -0.5210    -2.3520    -1.4770 ha         1 NE1       0.130000
     21 H3           1.1170    -2.3800     0.6480 ha         1 NE1       0.139500
     22 H5           0.8620     1.6260    -0.9610 ha         1 NE1       0.139500
     23 HO15         5.2250     0.9060    -0.1560 ho         1 NE1       0.485000
@<TRIPOS>BOND
     1     1     2 1   
     2     2     3 ar  
     3     2     7 ar  
     4     3     4 1   
     5     3     5 ar  
     6     5     6 1   
     7     5     9 ar  
     8     7     8 ar  
     9     7    19 1   
    10     8     9 ar  
    11     8    20 1   
    12     9    10 1   
    13    10    11 ar  
    14    10    14 ar  
    15    11    12 ar  
    16    11    21 1   
    17    12    13 1   
    18    12    17 ar  
    19    14    15 ar  
    20    14    22 1   
    21    15    16 1   
    22    15    17 ar  
    23    17    18 1   
    24    18    23 1   
@<TRIPOS>SUBSTRUCTURE
     1 NE1         1 TEMP              0 ****  ****    0 ROOT
