@<TRIPOS>MOLECULE
NE1
   23    24     1     0     0
SMALL
bcc


@<TRIPOS>ATOM
      1 CL18        -5.1210    -1.1670    -0.7840 cl         1 NE1      -0.067400
      2 C10         -3.4330    -0.9230    -0.5770 ca         1 NE1       0.033400
      3 C9          -2.9670     0.1340     0.2000 ca         1 NE1       0.021400
      4 CL17        -4.0740     1.1890     0.9700 cl         1 NE1      -0.048400
      5 C8          -1.5930     0.3180     0.3530 ca         1 NE1       0.040400
      6 CL16        -1.0320     1.5950     1.3590 cl         1 NE1      -0.064400
      7 C11         -2.5390    -1.7860    -1.1860 ca         1 NE1      -0.114000
      8 C12         -1.1810    -1.5870    -1.0300 ca         1 NE1      -0.103000
      9 C7          -0.6800    -0.5350    -0.2690 cp         1 NE1      -0.018000
     10 C4           0.7820    -0.3660    -0.1370 cp         1 NE1      -0.071000
     11 C3           1.5540    -1.3970     0.3870 ca         1 NE1      -0.056500
     12 C2           2.9270    -1.2660     0.4750 ca         1 NE1      -0.046100
     13 CL14         3.8740    -2.5470     1.1350 cl         1 NE1      -0.087900
     14 C5           1.4130     0.7930    -0.5750 ca         1 NE1      -0.056500
     15 C6           2.7860     0.9080    -0.4820 ca         1 NE1      -0.046100
     16 CL13         3.5690     2.3480    -1.0380 cl         1 NE1      -0.087900
     17 C1           3.5820    -0.1120     0.0430 ca         1 NE1       0.173100
     18 O15          4.9070    -0.0490     0.1540 oh         1 NE1      -0.466100
     19 H11         -2.9050    -2.6080    -1.7860 ha         1 NE1       0.156000
     20 H12         -0.4900    -2.2560    -1.5250 ha         1 NE1       0.148000
     21 H3           1.0840    -2.3060     0.7380 ha         1 NE1       0.157500
     22 H5           0.8410     1.6050    -1.0030 ha         1 NE1       0.157500
     23 HO15         5.2490     0.7870    -0.1900 ho         1 NE1       0.446000
@<TRIPOS>BOND
     1     1     2 1   
     2     2     3 ar  
     3     2     7 ar  
     4     3     4 1   
     5     3     5 ar  
     6     5     6 1   
     7     5     9 ar  
     8     7     8 ar  
     9     7    19 1   
    10     8     9 ar  
    11     8    20 1   
    12     9    10 1   
    13    10    11 ar  
    14    10    14 ar  
    15    11    12 ar  
    16    11    21 1   
    17    12    13 1   
    18    12    17 ar  
    19    14    15 ar  
    20    14    22 1   
    21    15    16 1   
    22    15    17 ar  
    23    17    18 1   
    24    18    23 1   
@<TRIPOS>SUBSTRUCTURE
     1 NE1         1 TEMP              0 ****  ****    0 ROOT
