@<TRIPOS>MOLECULE
NE2
   23    24     1     0     0
SMALL
No Charge or Current Charge


@<TRIPOS>ATOM
      1 Cl17        -4.0900     1.7720     0.8760 cl         1 NE2      -0.168000
      2 C9          -3.0580     0.4960     0.2280 ca         1 NE2       0.118000
      3 C8          -1.6630     0.6300     0.3330 ca         1 NE2      -0.090000
      4 C10         -3.6110    -0.6460    -0.3840 ca         1 NE2       0.119000
      5 Cl16        -5.3570    -0.8470    -0.5330 cl         1 NE2      -0.167000
      6 C11         -2.7630    -1.6470    -0.8860 ca         1 NE2      -0.095000
      7 C12         -1.3680    -1.5100    -0.7780 ca         1 NE2      -0.093000
      8 C7          -0.7890    -0.3690    -0.1670 cp         1 NE2      -0.018000
      9 C3           0.6970    -0.2230    -0.0540 cp         1 NE2      -0.064000
     10 C2           1.5260    -1.3480     0.1850 ca         1 NE2      -0.048000
     11 C4           1.3200     1.0440    -0.1800 ca         1 NE2      -0.048000
     12 C5           2.7150     1.1830    -0.0740 ca         1 NE2       0.047000
     13 Cl14         3.4330     2.7850    -0.2470 cl         1 NE2      -0.180000
     14 C6           3.5260     0.0540     0.1630 ca         1 NE2       0.171100
     15 O15          4.8870     0.1890     0.2670 oh         1 NE2      -0.504100
     16 C1           2.9220    -1.2150     0.2930 ca         1 NE2       0.047000
     17 Cl13         3.8940    -2.6570     0.5950 cl         1 NE2      -0.180000
     18 H8          -1.2580     1.5120     0.8210 ha         1 NE2       0.134000
     19 H11         -3.1880    -2.5270    -1.3610 ha         1 NE2       0.134000
     20 H12         -0.7310    -2.2910    -1.1870 ha         1 NE2       0.125000
     21 H2           1.0840    -2.3340     0.3020 ha         1 NE2       0.137000
     22 H4           0.7200     1.9280    -0.3780 ha         1 NE2       0.137000
     23 HO15         5.1090     1.1390     0.1490 ho         1 NE2       0.485000
@<TRIPOS>BOND
     1     1     2 1   
     2     2     3 ar  
     3     2     4 ar  
     4     3     8 ar  
     5     3    18 1   
     6     4     5 1   
     7     4     6 ar  
     8     6     7 ar  
     9     6    19 1   
    10     7     8 ar  
    11     7    20 1   
    12     8     9 1   
    13     9    10 ar  
    14     9    11 ar  
    15    10    16 ar  
    16    10    21 1   
    17    11    12 ar  
    18    11    22 1   
    19    12    13 1   
    20    12    14 ar  
    21    14    15 1   
    22    14    16 ar  
    23    15    23 1   
    24    16    17 1   
@<TRIPOS>SUBSTRUCTURE
     1 NE2         1 TEMP              0 ****  ****    0 ROOT
