@<TRIPOS>MOLECULE
NE2
   23    24     1     0     0
SMALL
abcg2


@<TRIPOS>ATOM
      1 CL17        -4.0240     1.7190     0.8590 cl         1 NE2      -0.168000
      2 C9          -3.0080     0.4830     0.2240 ca         1 NE2       0.118000
      3 C8          -1.6330     0.6180     0.3290 ca         1 NE2      -0.090000
      4 C10         -3.5570    -0.6440    -0.3770 ca         1 NE2       0.119000
      5 CL16        -5.2620    -0.8280    -0.5150 cl         1 NE2      -0.167000
      6 C11         -2.7170    -1.6310    -0.8710 ca         1 NE2      -0.095000
      7 C12         -1.3440    -1.4910    -0.7690 ca         1 NE2      -0.093000
      8 C7          -0.7820    -0.3650    -0.1680 cp         1 NE2      -0.018000
      9 C3           0.6800    -0.2140    -0.0570 cp         1 NE2      -0.064000
     10 C2           1.4950    -1.3200     0.1760 ca         1 NE2      -0.048000
     11 C4           1.2800     1.0360    -0.1860 ca         1 NE2      -0.048000
     12 C5           2.6510     1.1660    -0.0790 ca         1 NE2       0.047000
     13 CL14         3.3840     2.7240    -0.2530 cl         1 NE2      -0.180000
     14 C6           3.4830     0.0700     0.1570 ca         1 NE2       0.171100
     15 O15          4.8070     0.1410     0.2690 oh         1 NE2      -0.504100
     16 C1           2.8640    -1.1750     0.2790 ca         1 NE2       0.047000
     17 CL13         3.8560    -2.5540     0.5810 cl         1 NE2      -0.180000
     18 H8          -1.2330     1.4930     0.8240 ha         1 NE2       0.134000
     19 H11         -3.1380    -2.5060    -1.3450 ha         1 NE2       0.134000
     20 H12         -0.7120    -2.2650    -1.1840 ha         1 NE2       0.125000
     21 H2           1.0630    -2.3050     0.3000 ha         1 NE2       0.137000
     22 H4           0.6840     1.9150    -0.3910 ha         1 NE2       0.137000
     23 HO15         5.1200     1.0520     0.1800 ho         1 NE2       0.485000
@<TRIPOS>BOND
     1     1     2 1   
     2     2     3 ar  
     3     2     4 ar  
     4     3     8 ar  
     5     3    18 1   
     6     4     5 1   
     7     4     6 ar  
     8     6     7 ar  
     9     6    19 1   
    10     7     8 ar  
    11     7    20 1   
    12     8     9 1   
    13     9    10 ar  
    14     9    11 ar  
    15    10    16 ar  
    16    10    21 1   
    17    11    12 ar  
    18    11    22 1   
    19    12    13 1   
    20    12    14 ar  
    21    14    15 1   
    22    14    16 ar  
    23    15    23 1   
    24    16    17 1   
@<TRIPOS>SUBSTRUCTURE
     1 NE2         1 TEMP              0 ****  ****    0 ROOT
