@<TRIPOS>MOLECULE
NE3
   47    50     1     0     0
SMALL
abcg2


@<TRIPOS>ATOM
      1 C01        -25.7940    23.2000   -25.1040 c6         1 NE3       0.082000
      2 C02        -24.5790    24.0730   -25.3950 c6         1 NE3       0.196800
      3 C04        -27.4100    21.0410   -18.4040 ca         1 NE3      -0.069300
      4 C05        -26.3670    21.9070   -18.7040 ca         1 NE3       0.175000
      5 C06        -26.0040    22.2490   -19.9910 ca         1 NE3      -0.130000
      6 C07        -26.7100    21.7240   -21.0660 ca         1 NE3      -0.049300
      7 C08        -26.3380    22.0890   -22.4710 c3         1 NE3      -0.109100
      8 C09        -26.9410    23.4230   -22.8940 c          1 NE3       0.607100
      9 C11        -27.1100    25.1470   -24.6110 c6         1 NE3       0.082000
     10 C12        -25.9110    26.0430   -24.8710 c6         1 NE3       0.196800
     11 C14        -24.3940    26.0980   -26.7930 ca         1 NE3       0.587900
     12 C17        -23.3990    27.6530   -28.7260 ca         1 NE3       0.297000
     13 C18        -22.9330    28.5660   -29.7200 cg         1 NE3       0.232000
     14 C20        -22.9070    26.3460   -28.6350 ca         1 NE3      -0.038000
     15 C21        -23.4060    25.5510   -27.6480 ca         1 NE3      -0.197000
     16 C22        -27.7440    20.7020   -17.0000 cx         1 NE3      -0.085400
     17 C23        -29.1790    20.5590   -16.5640 cx         1 NE3      -0.120900
     18 C24        -28.3060    19.3540   -16.6380 cx         1 NE3      -0.120900
     19 C25        -27.7670    20.8600   -20.8010 ca         1 NE3      -0.108000
     20 C26        -28.1040    20.5260   -19.4990 ca         1 NE3      -0.088000
     21 N10        -26.6740    23.8440   -24.1530 n          1 NE3      -0.420800
     22 N13        -24.9880    25.4060   -25.8020 nh         1 NE3      -0.773300
     23 N15        -24.7940    27.3760   -26.9520 nb         1 NE3      -0.410000
     24 N16        -24.3120    28.1240   -27.8920 nb         1 NE3      -0.227000
     25 N19        -22.5480    29.2970   -30.5220 n1         1 NE3      -0.436000
     26 O24        -27.6380    24.0700   -22.1300 o          1 NE3      -0.575100
     27 H1         -26.3450    23.0220   -26.0330 h1         1 NE3       0.068200
     28 H2         -25.4530    22.2340   -24.7440 h1         1 NE3       0.068200
     29 H3         -24.0000    23.5840   -26.1730 h1         1 NE3       0.066200
     30 H4         -23.9490    24.1370   -24.5010 h1         1 NE3       0.066200
     31 H5         -25.1710    22.9240   -20.1500 ha         1 NE3       0.129000
     32 H6         -26.6670    21.3060   -23.1590 hc         1 NE3       0.064200
     33 H7         -25.2490    22.1400   -22.5680 hc         1 NE3       0.064200
     34 H8         -27.7540    25.6080   -23.8680 h1         1 NE3       0.068200
     35 H9         -27.6890    25.0280   -25.5320 h1         1 NE3       0.068200
     36 H10        -25.3910    26.2500   -23.9290 h1         1 NE3       0.066200
     37 H11        -26.2470    26.9900   -25.2800 h1         1 NE3       0.066200
     38 H12        -22.1530    25.9840   -29.3200 ha         1 NE3       0.139000
     39 H13        -23.0410    24.5410   -27.5460 ha         1 NE3       0.131000
     40 H14        -27.0850    21.1320   -16.2580 hc         1 NE3       0.093700
     41 H15        -29.4460    20.9490   -15.5900 hc         1 NE3       0.073450
     42 H16        -29.9460    20.6830   -17.3190 hc         1 NE3       0.073450
     43 H17        -28.4790    18.6430   -17.4370 hc         1 NE3       0.073450
     44 H18        -27.9640    18.9050   -15.7140 hc         1 NE3       0.073450
     45 H19        -28.3310    20.4360   -21.6220 ha         1 NE3       0.114000
     46 H20        -28.9300    19.8430   -19.3350 ha         1 NE3       0.116000
     47 F16        -25.6680    22.4500   -17.6880 f          1 NE3      -0.181000
@<TRIPOS>BOND
     1     1     2 1   
     2     1    21 1   
     3     1    27 1   
     4     1    28 1   
     5     2    22 1   
     6     2    29 1   
     7     2    30 1   
     8     3     4 ar  
     9     3    16 1   
    10     3    20 ar  
    11     4     5 ar  
    12     4    47 1   
    13     5     6 ar  
    14     5    31 1   
    15     6     7 1   
    16     6    19 ar  
    17     7     8 1   
    18     7    32 1   
    19     7    33 1   
    20     8    21 1   
    21     8    26 2   
    22     9    10 1   
    23     9    21 1   
    24     9    34 1   
    25     9    35 1   
    26    10    22 1   
    27    10    36 1   
    28    10    37 1   
    29    11    15 ar  
    30    11    22 1   
    31    11    23 ar  
    32    12    13 1   
    33    12    14 ar  
    34    12    24 ar  
    35    13    25 3   
    36    14    15 ar  
    37    14    38 1   
    38    15    39 1   
    39    16    17 1   
    40    16    18 1   
    41    16    40 1   
    42    17    18 1   
    43    17    41 1   
    44    17    42 1   
    45    18    43 1   
    46    18    44 1   
    47    19    20 ar  
    48    19    45 1   
    49    20    46 1   
    50    23    24 ar  
@<TRIPOS>SUBSTRUCTURE
     1 NE3         1 TEMP              0 ****  ****    0 ROOT
