@<TRIPOS>MOLECULE
NE3
   47    50     1     0     0
SMALL
No Charge or Current Charge


@<TRIPOS>ATOM
      1 C01        -24.9430    23.6030   -23.3670 c6         1 NE3       0.082000
      2 C02        -24.7410    23.8600   -24.8870 c6         1 NE3       0.196800
      3 C04        -27.8940    21.1810   -19.4520 ca         1 NE3      -0.069300
      4 C05        -27.3200    22.2440   -18.7150 ca         1 NE3       0.175000
      5 C06        -26.0740    22.7800   -19.0750 ca         1 NE3      -0.130000
      6 C07        -25.3690    22.2730   -20.1810 ca         1 NE3      -0.049300
      7 C08        -24.0170    22.8640   -20.5700 c3         1 NE3      -0.109100
      8 C09        -24.1670    24.3160   -21.0640 c          1 NE3       0.607100
      9 C11        -24.3430    25.9940   -22.9180 c6         1 NE3       0.082000
     10 C12        -24.1200    26.2050   -24.4370 c6         1 NE3       0.196800
     11 C14        -25.3720    25.6590   -26.5550 ca         1 NE3       0.587900
     12 C17        -26.2200    26.5950   -28.9980 ca         1 NE3       0.297000
     13 C18        -26.6760    27.1540   -30.2450 cg         1 NE3       0.232000
     14 C20        -25.7710    25.2620   -28.9130 ca         1 NE3      -0.038000
     15 C21        -25.3360    24.7820   -27.6600 ca         1 NE3      -0.197000
     16 C22        -29.2410    20.6020   -19.0660 cx         1 NE3      -0.085400
     17 C23        -30.2390    20.1280   -20.1010 cx         1 NE3      -0.120900
     18 C24        -29.5550    19.1270   -19.2020 cx         1 NE3      -0.120900
     19 C25        -25.9280    21.2100   -20.9160 ca         1 NE3      -0.108000
     20 C26        -27.1760    20.6720   -20.5570 ca         1 NE3      -0.088000
     21 N10        -24.2560    24.5740   -22.4530 n          1 NE3      -0.420800
     22 N13        -24.9610    25.2850   -25.2530 nh         1 NE3      -0.773300
     23 N15        -25.8140    26.9330   -26.7030 nb         1 NE3      -0.410000
     24 N16        -26.2320    27.3980   -27.9030 nb         1 NE3      -0.227000
     25 N19        -27.0440    27.5980   -31.2630 n1         1 NE3      -0.436000
     26 O24        -24.1730    25.2390   -20.2580 o          1 NE3      -0.575100
     27 H1         -26.0210    23.6360   -23.1520 h1         1 NE3       0.068200
     28 H2         -24.6110    22.5780   -23.1670 h1         1 NE3       0.068200
     29 H3         -25.4380    23.2040   -25.4290 h1         1 NE3       0.066200
     30 H4         -23.7210    23.5570   -25.1650 h1         1 NE3       0.066200
     31 H5         -25.6580    23.5950   -18.4890 ha         1 NE3       0.129000
     32 H6         -23.5580    22.2480   -21.3490 hc         1 NE3       0.064200
     33 H7         -23.3650    22.8620   -19.6890 hc         1 NE3       0.064200
     34 H8         -23.6070    26.6040   -22.3750 h1         1 NE3       0.068200
     35 H9         -25.3370    26.3830   -22.6570 h1         1 NE3       0.068200
     36 H10        -23.0570    26.0340   -24.6640 h1         1 NE3       0.066200
     37 H11        -24.3280    27.2600   -24.6660 h1         1 NE3       0.066200
     38 H12        -25.7580    24.6230   -29.7930 ha         1 NE3       0.139000
     39 H13        -24.9720    23.7650   -27.5650 ha         1 NE3       0.131000
     40 H14        -29.6720    21.0890   -18.1940 hc         1 NE3       0.093700
     41 H15        -31.2910    20.3360   -19.9190 hc         1 NE3       0.073450
     42 H16        -29.9500    20.1530   -21.1480 hc         1 NE3       0.073450
     43 H17        -28.8040    18.4760   -19.6420 hc         1 NE3       0.073450
     44 H18        -30.1480    18.6640   -18.4170 hc         1 NE3       0.073450
     45 H19        -25.3970    20.7930   -21.7680 ha         1 NE3       0.114000
     46 H20        -27.5780    19.8530   -21.1490 ha         1 NE3       0.116000
     47 F16        -27.9620    22.7670   -17.6450 f          1 NE3      -0.181000
@<TRIPOS>BOND
     1     1     2 1   
     2     1    21 1   
     3     1    27 1   
     4     1    28 1   
     5     2    22 1   
     6     2    29 1   
     7     2    30 1   
     8     3     4 ar  
     9     3    16 1   
    10     3    20 ar  
    11     4     5 ar  
    12     4    47 1   
    13     5     6 ar  
    14     5    31 1   
    15     6     7 1   
    16     6    19 ar  
    17     7     8 1   
    18     7    32 1   
    19     7    33 1   
    20     8    21 1   
    21     8    26 2   
    22     9    10 1   
    23     9    21 1   
    24     9    34 1   
    25     9    35 1   
    26    10    22 1   
    27    10    36 1   
    28    10    37 1   
    29    11    15 ar  
    30    11    22 1   
    31    11    23 ar  
    32    12    13 1   
    33    12    14 ar  
    34    12    24 ar  
    35    13    25 3   
    36    14    15 ar  
    37    14    38 1   
    38    15    39 1   
    39    16    17 1   
    40    16    18 1   
    41    16    40 1   
    42    17    18 1   
    43    17    41 1   
    44    17    42 1   
    45    18    43 1   
    46    18    44 1   
    47    19    20 ar  
    48    19    45 1   
    49    20    46 1   
    50    23    24 ar  
@<TRIPOS>SUBSTRUCTURE
     1 NE3         1 TEMP              0 ****  ****    0 ROOT
