@<TRIPOS>MOLECULE
NE4
   51    54     1     0     0
SMALL
No Charge or Current Charge


@<TRIPOS>ATOM
      1 C10         24.0540     7.4450    14.9720 c5         1 NE4      -0.036000
      2 C13         22.3470     5.7290    16.6570 c6         1 NE4      -0.059400
      3 C15         23.4230     6.1510    14.3570 c5         1 NE4      -0.065400
      4 C20         28.7470     5.1190    15.7810 c          1 NE4       0.725000
      5 C03         26.3220     6.7670    18.2590 c6         1 NE4      -0.066400
      6 C04         27.7710     6.3250    18.5920 c6         1 NE4      -0.066400
      7 C05         28.8030     6.9550    17.6270 c6         1 NE4      -0.039400
      8 C06         28.5430     6.6420    16.1100 c6         1 NE4      -0.164000
      9 C07         27.0360     7.1410    15.8430 c6         1 NE4      -0.006700
     10 C08         26.5750     7.1170    14.3580 c6         1 NE4      -0.062400
     11 C09         25.2900     7.9630    14.1740 c6         1 NE4      -0.064400
     12 C11         24.4700     7.2710    16.5160 c6         1 NE4      -0.036700
     13 C12         23.2450     6.7810    17.3680 c6         1 NE4      -0.064400
     14 C14         22.1080     6.0970    15.1710 c5         1 NE4      -0.039500
     15 C16         21.6040     7.5190    15.0270 c2         1 NE4      -0.087400
     16 C18         22.8000     8.4030    14.7280 c5         1 NE4      -0.049200
     17 C19         29.6500     7.4300    15.2830 c3         1 NE4      -0.062100
     18 C01         25.7600     4.8760    16.6350 c3         1 NE4      -0.077100
     19 C02         25.8840     6.4790    16.7770 c6         1 NE4      -0.015000
     20 O21         28.5240     4.7640    14.6330 o          1 NE4      -0.735000
     21 O22         29.5380     4.4900    16.4720 o          1 NE4      -0.735000
     22 H131        21.3840     5.6630    17.1800 hc         1 NE4       0.034200
     23 H132        22.7890     4.7270    16.7160 hc         1 NE4       0.034200
     24 H151        23.2230     6.2600    13.2840 hc         1 NE4       0.051200
     25 H152        24.0210     5.2470    14.4660 hc         1 NE4       0.051200
     26 H171        19.5280     7.2230    15.3600 ha         1 NE4       0.153500
     27 H172        20.0560     8.9730    15.0230 ha         1 NE4       0.153500
     28 H032        26.2370     7.8420    18.4700 hc         1 NE4       0.014200
     29 H031        25.6480     6.2690    18.9670 hc         1 NE4       0.014200
     30 H041        27.8630     5.2330    18.5940 hc         1 NE4       0.036200
     31 H042        28.0090     6.6370    19.6180 hc         1 NE4       0.036200
     32 H052        29.8130     6.6360    17.9200 hc         1 NE4       0.019700
     33 H051        28.7950     8.0440    17.7800 hc         1 NE4       0.019700
     34 H071        27.0550     8.2090    16.1070 hc         1 NE4       0.000700
     35 H082        26.3970     6.0940    14.0090 hc         1 NE4       0.058700
     36 H081        27.3540     7.5340    13.7090 hc         1 NE4       0.058700
     37 H091        25.4980     9.0020    14.4660 hc         1 NE4       0.022200
     38 H092        25.0440     8.0020    13.1040 hc         1 NE4       0.022200
     39 H111        24.6590     8.2970    16.8610 hc         1 NE4       0.028700
     40 H121        23.5530     6.3950    18.3460 hc         1 NE4       0.029700
     41 H122        22.6210     7.6550    17.6000 hc         1 NE4       0.029700
     42 H141        21.3980     5.3640    14.7710 hc         1 NE4       0.048700
     43 H181        22.8240     9.2930    15.3680 hc         1 NE4       0.043700
     44 H182        22.7550     8.7550    13.6910 hc         1 NE4       0.043700
     45 H192        29.5620     8.5130    15.4330 hc         1 NE4       0.015033
     46 H191        30.6610     7.1360    15.5920 hc         1 NE4       0.015033
     47 H193        29.5750     7.2410    14.2070 hc         1 NE4       0.015033
     48 H011        24.9170     4.4840    17.2110 hc         1 NE4       0.037367
     49 H012        25.6490     4.5510    15.5990 hc         1 NE4       0.037367
     50 H013        26.6350     4.3460    17.0160 hc         1 NE4       0.037367
     51 C17         20.3330     7.9250    15.1420 c2         1 NE4      -0.357000
@<TRIPOS>BOND
     1     1     3 1   
     2     1    11 1   
     3     1    12 1   
     4     1    16 1   
     5     2    13 1   
     6     2    14 1   
     7     2    22 1   
     8     2    23 1   
     9     3    14 1   
    10     3    24 1   
    11     3    25 1   
    12     4     8 1   
    13     4    20 1   
    14     4    21 1   
    15     5     6 1   
    16     5    19 1   
    17     5    28 1   
    18     5    29 1   
    19     6     7 1   
    20     6    30 1   
    21     6    31 1   
    22     7     8 1   
    23     7    32 1   
    24     7    33 1   
    25     8     9 1   
    26     8    17 1   
    27     9    10 1   
    28     9    19 1   
    29     9    34 1   
    30    10    11 1   
    31    10    35 1   
    32    10    36 1   
    33    11    37 1   
    34    11    38 1   
    35    12    13 1   
    36    12    19 1   
    37    12    39 1   
    38    13    40 1   
    39    13    41 1   
    40    14    15 1   
    41    14    42 1   
    42    15    16 1   
    43    15    51 2   
    44    16    43 1   
    45    16    44 1   
    46    17    45 1   
    47    17    46 1   
    48    17    47 1   
    49    18    19 1   
    50    18    48 1   
    51    18    49 1   
    52    18    50 1   
    53    26    51 1   
    54    27    51 1   
@<TRIPOS>SUBSTRUCTURE
     1 NE4         1 TEMP              0 ****  ****    0 ROOT
