@<TRIPOS>MOLECULE
NE4
   51    54     1     0     0
SMALL
bcc


@<TRIPOS>ATOM
      1 C10         24.1310     7.4010    14.9880 c5         1 NE4      -0.036000
      2 C13         22.4250     5.7150    16.6190 c6         1 NE4      -0.059400
      3 C15         23.4790     6.1310    14.4150 c5         1 NE4      -0.065400
      4 C20         28.7740     5.1390    15.7680 c          1 NE4       0.935600
      5 C03         26.2910     6.7990    18.2030 c6         1 NE4      -0.066400
      6 C04         27.7040     6.3640    18.5640 c6         1 NE4      -0.066400
      7 C05         28.7200     6.9460    17.5970 c6         1 NE4      -0.039400
      8 C06         28.4410     6.6200    16.1240 c6         1 NE4      -0.164000
      9 C07         26.9850     7.0770    15.8180 c6         1 NE4      -0.006700
     10 C08         26.5500     7.0470    14.3540 c6         1 NE4      -0.062400
     11 C09         25.3070     7.8980    14.1640 c6         1 NE4      -0.064400
     12 C11         24.5460     7.2260    16.4700 c6         1 NE4      -0.036700
     13 C12         23.3420     6.7320    17.3040 c6         1 NE4      -0.064400
     14 C14         22.1480     6.0920    15.1610 c5         1 NE4      -0.039500
     15 C16         21.6980     7.5310    15.0800 c2         1 NE4      -0.087400
     16 C18         22.9360     8.3800    14.9020 c5         1 NE4      -0.049200
     17 C19         29.4210     7.4720    15.2990 c3         1 NE4      -0.062100
     18 C01         25.7660     4.9560    16.6180 c3         1 NE4      -0.077100
     19 C02         25.8920     6.4770    16.7460 c6         1 NE4      -0.015000
     20 O21         28.4770     4.7560    14.6170 o          1 NE4      -0.840300
     21 O22         29.3790     4.4550    16.6210 o          1 NE4      -0.840300
     22 H131        21.4840     5.6570    17.1740 hc         1 NE4       0.034200
     23 H132        22.8620     4.7140    16.6380 hc         1 NE4       0.034200
     24 H151        23.3160     6.2610    13.3400 hc         1 NE4       0.051200
     25 H152        24.0640     5.2210    14.5440 hc         1 NE4       0.051200
     26 H171        19.6140     7.2740    15.2500 ha         1 NE4       0.103500
     27 H172        20.1970     9.0160    15.0910 ha         1 NE4       0.103500
     28 H032        26.2150     7.8830    18.3500 hc         1 NE4       0.014200
     29 H031        25.5830     6.3450    18.9010 hc         1 NE4       0.014200
     30 H041        27.7850     5.2760    18.5740 hc         1 NE4       0.036200
     31 H042        27.9290     6.6940    19.5830 hc         1 NE4       0.036200
     32 H052        29.7290     6.6250    17.8640 hc         1 NE4       0.019700
     33 H051        28.7070     8.0380    17.7070 hc         1 NE4       0.019700
     34 H071        27.0030     8.1490    16.0780 hc         1 NE4       0.000700
     35 H082        26.3670     6.0270    14.0150 hc         1 NE4       0.058700
     36 H081        27.3470     7.4340    13.7160 hc         1 NE4       0.058700
     37 H091        25.5330     8.9330    14.4500 hc         1 NE4       0.022200
     38 H092        25.0170     7.9300    13.1080 hc         1 NE4       0.022200
     39 H111        24.7480     8.2480    16.8190 hc         1 NE4       0.028700
     40 H121        23.6720     6.3250    18.2610 hc         1 NE4       0.029700
     41 H122        22.7360     7.6040    17.5660 hc         1 NE4       0.029700
     42 H141        21.4210     5.4030    14.7260 hc         1 NE4       0.048700
     43 H181        22.9990     9.1980    15.6240 hc         1 NE4       0.043700
     44 H182        22.9230     8.8410    13.9080 hc         1 NE4       0.043700
     45 H192        29.2330     8.5390    15.4500 hc         1 NE4       0.015033
     46 H191        30.4500     7.2760    15.6120 hc         1 NE4       0.015033
     47 H193        29.3610     7.2700    14.2310 hc         1 NE4       0.015033
     48 H011        24.9190     4.5900    17.2010 hc         1 NE4       0.037367
     49 H012        25.6330     4.6160    15.5940 hc         1 NE4       0.037367
     50 H013        26.6490     4.4480    17.0010 hc         1 NE4       0.037367
     51 C17         20.4440     7.9620    15.1430 c2         1 NE4      -0.257000
@<TRIPOS>BOND
     1     1     3 1   
     2     1    11 1   
     3     1    12 1   
     4     1    16 1   
     5     2    13 1   
     6     2    14 1   
     7     2    22 1   
     8     2    23 1   
     9     3    14 1   
    10     3    24 1   
    11     3    25 1   
    12     4     8 1   
    13     4    20 1   
    14     4    21 1   
    15     5     6 1   
    16     5    19 1   
    17     5    28 1   
    18     5    29 1   
    19     6     7 1   
    20     6    30 1   
    21     6    31 1   
    22     7     8 1   
    23     7    32 1   
    24     7    33 1   
    25     8     9 1   
    26     8    17 1   
    27     9    10 1   
    28     9    19 1   
    29     9    34 1   
    30    10    11 1   
    31    10    35 1   
    32    10    36 1   
    33    11    37 1   
    34    11    38 1   
    35    12    13 1   
    36    12    19 1   
    37    12    39 1   
    38    13    40 1   
    39    13    41 1   
    40    14    15 1   
    41    14    42 1   
    42    15    16 1   
    43    15    51 2   
    44    16    43 1   
    45    16    44 1   
    46    17    45 1   
    47    17    46 1   
    48    17    47 1   
    49    18    19 1   
    50    18    48 1   
    51    18    49 1   
    52    18    50 1   
    53    26    51 1   
    54    27    51 1   
@<TRIPOS>SUBSTRUCTURE
     1 NE4         1 TEMP              0 ****  ****    0 ROOT
