@<TRIPOS>MOLECULE
NE6
   61    61     1     0     0
SMALL
abcg2


@<TRIPOS>ATOM
      1 O1          -0.3190    -0.1770    -0.8750 os         1 NE6      -0.343200
      2 C2           0.8040     0.2090    -1.5170 c          1 NE6       0.687100
      3 C3           1.6510     1.2660    -0.8670 c6         1 NE6      -0.400700
      4 O2           1.0940    -0.3520    -2.5300 o          1 NE6      -0.458000
      5 C4           0.9430     2.1520     0.1400 c          1 NE6       0.609300
      6 C5          -0.3040     1.6410     0.6530 ce         1 NE6      -0.394200
      7 C6          -0.8500     0.5180     0.1650 c2         1 NE6       0.188900
      8 C7          -2.1120    -0.1050     0.6630 c3         1 NE6      -0.021500
      9 C8          -1.8400    -1.5210     1.1800 c3         1 NE6      -0.087100
     10 C9          -3.1970    -0.0650    -0.4250 c3         1 NE6      -0.071400
     11 C10         -4.5690    -0.4710     0.0960 c3         1 NE6      -0.072400
     12 C11         -5.6370    -0.3440    -0.9950 c3         1 NE6      -0.146700
     13 C12         -6.9660    -0.7820    -0.4990 c2         1 NE6       0.515200
     14 C13         -9.1690    -0.5050     0.0130 c          1 NE6       0.719500
     15 C14        -11.0440     0.0300     1.3190 c3         1 NE6       0.155900
     16 C15          2.7540     0.4810    -0.1060 c          1 NE6       0.604300
     17 C16          4.1050     0.4490    -0.6850 ce         1 NE6      -0.208400
     18 C17          4.3860     1.2020    -1.9520 c3         1 NE6      -0.048900
     19 C18          5.0200    -0.2960    -0.0170 cf         1 NE6      -0.076000
     20 C19          6.3910    -0.5050    -0.3880 cf         1 NE6      -0.224000
     21 C20          7.2720    -1.2710     0.2920 c2         1 NE6      -0.053400
     22 C21          6.9640    -2.0360     1.5390 c3         1 NE6      -0.068900
     23 C22          8.6860    -1.3870    -0.1970 c3         1 NE6      -0.054200
     24 C23          9.6620    -0.5140     0.6020 c3         1 NE6      -0.072400
     25 C24         11.0990    -0.6960     0.1360 c3         1 NE6      -0.091100
     26 N12         -7.9530     0.0130    -0.4250 ne         1 NE6      -0.631100
     27 O14         -9.7680     0.3840     0.7870 os         1 NE6      -0.410100
     28 O13         -9.6410    -1.5710    -0.3000 o          1 NE6      -0.510000
     29 O4           1.4540     3.1940     0.4930 o          1 NE6      -0.504100
     30 O15          2.4220    -0.0870     0.9120 o          1 NE6      -0.519100
     31 H3           2.0750     1.8850    -1.6570 hc         1 NE6       0.123700
     32 H5          -0.8060     2.1640     1.4550 ha         1 NE6       0.221000
     33 H7          -2.4460     0.5120     1.5010 hc         1 NE6       0.068700
     34 H8          -1.5690    -2.2000     0.3700 hc         1 NE6       0.047367
     35 H8A         -1.0360    -1.5260     1.9160 hc         1 NE6       0.047367
     36 H8B         -2.7280    -1.9220     1.6650 hc         1 NE6       0.047367
     37 H9          -3.2590     0.9500    -0.8270 hc         1 NE6       0.054700
     38 H9A         -2.9150    -0.7170    -1.2560 hc         1 NE6       0.054700
     39 H10         -4.5490    -1.5010     0.4620 hc         1 NE6       0.047200
     40 H10A        -4.8430     0.1590     0.9470 hc         1 NE6       0.047200
     41 H11         -5.6980     0.6810    -1.3630 hc         1 NE6       0.072200
     42 H11A        -5.3630    -0.9890    -1.8370 hc         1 NE6       0.072200
     43 H12         -7.0400    -1.8250    -0.1760 h4         1 NE6      -0.015200
     44 H14        -11.3530     0.8700     1.9330 h1         1 NE6       0.051033
     45 H14A       -11.7750    -0.1250     0.5250 h1         1 NE6       0.051033
     46 H14B       -10.9860    -0.8660     1.9360 h1         1 NE6       0.051033
     47 H17          4.2160     2.2730    -1.8330 hc         1 NE6       0.048367
     48 H17A         5.4170     1.0810    -2.2730 hc         1 NE6       0.048367
     49 H17B         3.7540     0.8600    -2.7730 hc         1 NE6       0.048367
     50 H18          4.6780    -0.7890     0.8850 ha         1 NE6       0.191000
     51 H19          6.7530    -0.0210    -1.2870 ha         1 NE6       0.179000
     52 H21          7.0970    -3.1050     1.3540 hc         1 NE6       0.049033
     53 H21A         7.6650    -1.7740     2.3340 hc         1 NE6       0.049033
     54 H21B         5.9580    -1.8850     1.9220 hc         1 NE6       0.049033
     55 H22          9.0070    -2.4320    -0.1270 hc         1 NE6       0.049700
     56 H22A         8.7430    -1.1060    -1.2520 hc         1 NE6       0.049700
     57 H23          9.3670     0.5330     0.4990 hc         1 NE6       0.042200
     58 H23A         9.5920    -0.7530     1.6660 hc         1 NE6       0.042200
     59 H24         11.7800    -0.0560     0.6980 hc         1 NE6       0.034033
     60 H24A        11.4290    -1.7280     0.2660 hc         1 NE6       0.034033
     61 H24B        11.2080    -0.4450    -0.9210 hc         1 NE6       0.034033
@<TRIPOS>BOND
     1     1     2 1   
     2     1     7 1   
     3     2     3 1   
     4     2     4 2   
     5     3     5 1   
     6     3    16 1   
     7     3    31 1   
     8     5     6 1   
     9     5    29 2   
    10     6     7 2   
    11     6    32 1   
    12     7     8 1   
    13     8     9 1   
    14     8    10 1   
    15     8    33 1   
    16     9    34 1   
    17     9    35 1   
    18     9    36 1   
    19    10    11 1   
    20    10    37 1   
    21    10    38 1   
    22    11    12 1   
    23    11    39 1   
    24    11    40 1   
    25    12    13 1   
    26    12    41 1   
    27    12    42 1   
    28    13    26 2   
    29    13    43 1   
    30    14    26 1   
    31    14    27 1   
    32    14    28 2   
    33    15    27 1   
    34    15    44 1   
    35    15    45 1   
    36    15    46 1   
    37    16    17 1   
    38    16    30 2   
    39    17    18 1   
    40    17    19 2   
    41    18    47 1   
    42    18    48 1   
    43    18    49 1   
    44    19    20 1   
    45    19    50 1   
    46    20    21 2   
    47    20    51 1   
    48    21    22 1   
    49    21    23 1   
    50    22    52 1   
    51    22    53 1   
    52    22    54 1   
    53    23    24 1   
    54    23    55 1   
    55    23    56 1   
    56    24    25 1   
    57    24    57 1   
    58    24    58 1   
    59    25    59 1   
    60    25    60 1   
    61    25    61 1   
@<TRIPOS>SUBSTRUCTURE
     1 NE6         1 TEMP              0 ****  ****    0 ROOT
