@<TRIPOS>MOLECULE
NE6
   61    61     1     0     0
SMALL
No Charge or Current Charge


@<TRIPOS>ATOM
      1 O1          -0.5200    -0.1710    -1.4990 os         1 NE6      -0.343200
      2 C2           0.6580     0.2170    -2.0890 c          1 NE6       0.687100
      3 C3           1.7460     0.7410    -1.1920 c6         1 NE6      -0.400700
      4 O2           0.7990     0.2090    -3.3010 o          1 NE6      -0.458000
      5 C4           1.2280     1.3680     0.0560 c          1 NE6       0.609300
      6 C5           0.0440     0.7220     0.6190 ce         1 NE6      -0.394200
      7 C6          -0.7670    -0.0020    -0.1640 c2         1 NE6       0.188900
      8 C7          -2.0590    -0.6660     0.2870 c3         1 NE6      -0.021500
      9 C8          -1.9910    -2.2010     0.0880 c3         1 NE6      -0.087100
     10 C9          -3.2920    -0.0130    -0.3980 c3         1 NE6      -0.071400
     11 C10         -4.6610    -0.4640     0.1660 c3         1 NE6      -0.072400
     12 C11         -5.8520     0.2820    -0.4810 c3         1 NE6      -0.146700
     13 C12         -7.1960    -0.1530     0.0610 c2         1 NE6       0.515200
     14 C13         -9.4640    -0.0630     0.1740 c          1 NE6       0.719500
     15 C14        -11.1180     0.4730     1.8320 c3         1 NE6       0.155900
     16 C15          2.6830    -0.3890    -0.8500 c          1 NE6       0.604300
     17 C16          4.1460    -0.1860    -1.1360 ce         1 NE6      -0.208400
     18 C17          4.5200     0.2370    -2.5570 c3         1 NE6      -0.048900
     19 C18          5.0840    -0.6040    -0.2310 cf         1 NE6      -0.076000
     20 C19          6.5370    -0.5550    -0.4060 cf         1 NE6      -0.224000
     21 C20          7.4570    -1.0730     0.4460 c2         1 NE6      -0.053400
     22 C21          7.1180    -1.8100     1.7350 c3         1 NE6      -0.068900
     23 C22          8.9530    -0.9280     0.2070 c3         1 NE6      -0.054200
     24 C23          9.5960     0.1560     1.0990 c3         1 NE6      -0.072400
     25 C24         11.1050     0.3370     0.8400 c3         1 NE6      -0.091100
     26 N12         -8.2860     0.3920    -0.3740 ne         1 NE6      -0.631100
     27 O14         -9.8920     0.7900     1.1490 os         1 NE6      -0.410100
     28 O13        -10.0440    -1.0820    -0.1620 o          1 NE6      -0.510000
     29 O4           1.7680     2.3300     0.5750 o          1 NE6      -0.504100
     30 O15          2.2820    -1.3580    -0.2220 o          1 NE6      -0.519100
     31 H3           2.3300     1.4860    -1.7390 hc         1 NE6       0.123700
     32 H5          -0.1950     0.9420     1.6570 ha         1 NE6       0.221000
     33 H7          -2.1640    -0.4940     1.3660 hc         1 NE6       0.068700
     34 H8          -1.9890    -2.4590    -0.9780 hc         1 NE6       0.047367
     35 H8A         -1.0760    -2.6040     0.5390 hc         1 NE6       0.047367
     36 H8B         -2.8430    -2.7010     0.5630 hc         1 NE6       0.047367
     37 H9          -3.2120     1.0760    -0.2880 hc         1 NE6       0.054700
     38 H9A         -3.2610    -0.2190    -1.4760 hc         1 NE6       0.054700
     39 H10         -4.7910    -1.5410     0.0040 hc         1 NE6       0.047200
     40 H10A        -4.6780    -0.2970     1.2510 hc         1 NE6       0.047200
     41 H11         -5.7320     1.3600    -0.3220 hc         1 NE6       0.072200
     42 H11A        -5.8320     0.1200    -1.5650 hc         1 NE6       0.072200
     43 H12         -7.2270    -0.9290     0.8230 h4         1 NE6      -0.015200
     44 H14        -11.3440     1.2370     2.5860 h1         1 NE6       0.051033
     45 H14A       -11.9590     0.4300     1.1280 h1         1 NE6       0.051033
     46 H14B       -11.0420    -0.4960     2.3430 h1         1 NE6       0.051033
     47 H17          4.8190     1.2920    -2.5900 hc         1 NE6       0.048367
     48 H17A         5.3490    -0.3580    -2.9560 hc         1 NE6       0.048367
     49 H17B         3.6860     0.1070    -3.2570 hc         1 NE6       0.048367
     50 H18          4.7190    -0.9900     0.7240 ha         1 NE6       0.191000
     51 H19          6.9040    -0.0350    -1.2920 ha         1 NE6       0.179000
     52 H21          7.9400    -2.4530     2.0710 hc         1 NE6       0.049033
     53 H21A         6.9030    -1.1010     2.5440 hc         1 NE6       0.049033
     54 H21B         6.2430    -2.4580     1.6130 hc         1 NE6       0.049033
     55 H22          9.4620    -1.8860     0.3720 hc         1 NE6       0.049700
     56 H22A         9.1410    -0.6710    -0.8430 hc         1 NE6       0.049700
     57 H23          9.0870     1.1120     0.9290 hc         1 NE6       0.042200
     58 H23A         9.4460    -0.1020     2.1550 hc         1 NE6       0.042200
     59 H24         11.5140     1.1150     1.4950 hc         1 NE6       0.034033
     60 H24A        11.6470    -0.5960     1.0350 hc         1 NE6       0.034033
     61 H24B        11.2870     0.6340    -0.2000 hc         1 NE6       0.034033
@<TRIPOS>BOND
     1     1     2 1   
     2     1     7 1   
     3     2     3 1   
     4     2     4 2   
     5     3     5 1   
     6     3    16 1   
     7     3    31 1   
     8     5     6 1   
     9     5    29 2   
    10     6     7 2   
    11     6    32 1   
    12     7     8 1   
    13     8     9 1   
    14     8    10 1   
    15     8    33 1   
    16     9    34 1   
    17     9    35 1   
    18     9    36 1   
    19    10    11 1   
    20    10    37 1   
    21    10    38 1   
    22    11    12 1   
    23    11    39 1   
    24    11    40 1   
    25    12    13 1   
    26    12    41 1   
    27    12    42 1   
    28    13    26 2   
    29    13    43 1   
    30    14    26 1   
    31    14    27 1   
    32    14    28 2   
    33    15    27 1   
    34    15    44 1   
    35    15    45 1   
    36    15    46 1   
    37    16    17 1   
    38    16    30 2   
    39    17    18 1   
    40    17    19 2   
    41    18    47 1   
    42    18    48 1   
    43    18    49 1   
    44    19    20 1   
    45    19    50 1   
    46    20    21 2   
    47    20    51 1   
    48    21    22 1   
    49    21    23 1   
    50    22    52 1   
    51    22    53 1   
    52    22    54 1   
    53    23    24 1   
    54    23    55 1   
    55    23    56 1   
    56    24    25 1   
    57    24    57 1   
    58    24    58 1   
    59    25    59 1   
    60    25    60 1   
    61    25    61 1   
@<TRIPOS>SUBSTRUCTURE
     1 NE6         1 TEMP              0 ****  ****    0 ROOT
