@<TRIPOS>MOLECULE
NE7
   83    86     1     0     0
SMALL
abcg2


@<TRIPOS>ATOM
      1 C13         71.0490    57.3660    14.7890 c3         1 NE7       0.155300
      2 C15         70.7860    57.8920    16.2100 c3         1 NE7       0.099700
      3 C17         72.6970    58.4590    17.6530 c          1 NE7       0.635100
      4 C20         74.4750    59.3370    18.9850 c5         1 NE7       0.160300
      5 C21         75.6950    60.1820    18.6700 c5         1 NE7       0.152600
      6 C24         74.5810    61.3950    20.2940 c5         1 NE7       0.368300
      7 C26         72.3380    61.6940    19.8280 c5         1 NE7       0.150600
      8 C28         69.4430    58.6170    16.3650 c3         1 NE7      -0.040100
      9 C01         66.7700    51.9380    13.2300 ca         1 NE7      -0.073300
     10 C02         67.8000    51.3350    13.9520 ca         1 NE7      -0.118500
     11 C03         68.5410    52.0590    14.8740 ca         1 NE7      -0.017000
     12 C04         68.2500    53.4070    15.0730 ca         1 NE7      -0.311500
     13 C05         67.2240    54.0260    14.3620 ca         1 NE7      -0.017000
     14 C06         66.4880    53.2870    13.4480 ca         1 NE7      -0.118500
     15 C11         71.3910    53.9650    14.6550 c3         1 NE7       0.204800
     16 C12         70.2010    56.1510    14.4100 c3         1 NE7       0.212800
     17 C23         73.9450    59.9800    20.2820 c5         1 NE7      -0.140700
     18 C25         72.4410    60.2690    20.3610 c5         1 NE7      -0.095400
     19 C29         69.1980    59.0730    17.7810 ca         1 NE7      -0.084300
     20 C30         69.0000    58.1450    18.8080 ca         1 NE7      -0.101000
     21 C31         68.7890    58.5660    20.1160 ca         1 NE7      -0.115500
     22 C32         68.7690    59.9240    20.4210 ca         1 NE7      -0.115000
     23 C33         68.9640    60.8560    19.4080 ca         1 NE7      -0.115500
     24 C34         69.1810    60.4300    18.1010 ca         1 NE7      -0.101000
     25 C35         64.6950    50.5640    12.9170 c3         1 NE7      -0.084100
     26 C37         72.8520    54.4100    14.5810 c3         1 NE7      -0.059700
     27 C38         73.6730    53.3790    13.7860 c3         1 NE7      -0.076400
     28 C39         73.4300    54.6860    15.9670 c3         1 NE7      -0.089100
     29 C40         65.9510    51.1150    12.2570 c3         1 NE7       0.209600
     30 N10         70.4880    54.9750    15.2450 n3         1 NE7      -0.744500
     31 N16         71.8750    58.7610    16.6310 ns         1 NE7      -0.502900
     32 O08         68.4780    55.5000    16.6170 o          1 NE7      -0.542000
     33 O09         69.8430    53.4840    17.1360 o          1 NE7      -0.542000
     34 O14         70.7850    58.3410    13.7790 oh         1 NE7      -0.671000
     35 O18         72.6960    57.4150    18.2870 o          1 NE7      -0.539000
     36 O19         73.5530    59.4830    17.8860 os         1 NE7      -0.459100
     37 O22         75.3600    61.5040    19.0990 os         1 NE7      -0.467000
     38 O27         73.5450    62.3360    20.2920 os         1 NE7      -0.446000
     39 O41         65.5260    51.8800    11.1250 oh         1 NE7      -0.659000
     40 S07         69.2580    54.3740    16.1610 sy         1 NE7       1.188600
     41 H131        72.1030    57.0830    14.7520 h1         1 NE7       0.053700
     42 H151        70.8140    57.0350    16.8780 h1         1 NE7       0.100700
     43 H201        74.7070    58.2840    19.1070 h1         1 NE7       0.088700
     44 H212        75.9310    60.2100    17.6080 h1         1 NE7       0.062200
     45 H211        76.5600    59.8040    19.2250 h1         1 NE7       0.062200
     46 H241        75.2200    61.6060    21.1540 h2         1 NE7       0.082700
     47 H262        71.4960    62.2560    20.2270 h1         1 NE7       0.056700
     48 H261        72.2980    61.7120    18.7360 h1         1 NE7       0.056700
     49 H282        69.4230    59.4770    15.6940 hc         1 NE7       0.066700
     50 H281        68.6500    57.9380    16.0520 hc         1 NE7       0.066700
     51 H031        69.3360    51.5840    15.4320 ha         1 NE7       0.134500
     52 H051        66.9980    55.0690    14.5300 ha         1 NE7       0.134500
     53 H061        65.6910    53.7620    12.8920 ha         1 NE7       0.126000
     54 H112        71.0280    53.7110    13.6530 h1         1 NE7       0.051200
     55 H111        71.3270    53.0720    15.2710 h1         1 NE7       0.051200
     56 H122        69.1470    56.4110    14.4730 h1         1 NE7       0.064200
     57 H121        70.4130    55.8990    13.3700 h1         1 NE7       0.064200
     58 H231        74.2900    59.3900    21.1280 hc         1 NE7       0.077700
     59 H252        72.1180    60.2380    21.4020 hc         1 NE7       0.066700
     60 H251        71.8270    59.5680    19.8020 hc         1 NE7       0.066700
     61 H301        69.0080    57.0880    18.5750 ha         1 NE7       0.120500
     62 H311        68.6400    57.8320    20.8990 ha         1 NE7       0.112000
     63 H321        68.6080    60.2520    21.4410 ha         1 NE7       0.110000
     64 H331        68.9560    61.9140    19.6360 ha         1 NE7       0.112000
     65 H341        69.3430    61.1610    17.3170 ha         1 NE7       0.120500
     66 H351        64.9590    49.9440    13.7740 hc         1 NE7       0.050033
     67 H353        64.0610    51.3840    13.2620 hc         1 NE7       0.050033
     68 H352        64.1340    49.9580    12.2040 hc         1 NE7       0.050033
     69 H363        74.3760    51.3320    13.7730 hc         1 NE7       0.034700
     70 H362        74.1750    51.9910    15.3950 hc         1 NE7       0.034700
     71 H361        72.7630    51.5080    14.4540 hc         1 NE7       0.034700
     72 H371        72.8950    55.3350    14.0000 hc         1 NE7       0.043700
     73 H381        74.6860    53.7750    13.6770 hc         1 NE7       0.039200
     74 H382        73.2580    53.3120    12.7750 hc         1 NE7       0.039200
     75 H393        72.8830    55.4790    16.4770 hc         1 NE7       0.045033
     76 H391        73.3830    53.7960    16.5990 hc         1 NE7       0.045033
     77 H392        74.4750    54.9920    15.8920 hc         1 NE7       0.045033
     78 H401        66.5700    50.2770    11.9180 h1         1 NE7       0.038700
     79 H161        71.9300    59.6950    16.2540 hn         1 NE7       0.322500
     80 H141        71.4770    59.0140    13.8050 ho         1 NE7       0.450000
     81 H411        66.3090    52.2140    10.6690 ho         1 NE7       0.444000
     82 H021        68.0270    50.2890    13.7890 ha         1 NE7       0.126000
     83 C36         73.7470    51.9760    14.3910 c3         1 NE7      -0.090100
@<TRIPOS>BOND
     1     1     2 1   
     2     1    16 1   
     3     1    34 1   
     4     1    41 1   
     5     2     8 1   
     6     2    31 1   
     7     2    42 1   
     8     3    31 1   
     9     3    35 2   
    10     3    36 1   
    11     4     5 1   
    12     4    17 1   
    13     4    36 1   
    14     4    43 1   
    15     5    37 1   
    16     5    44 1   
    17     5    45 1   
    18     6    17 1   
    19     6    37 1   
    20     6    38 1   
    21     6    46 1   
    22     7    18 1   
    23     7    38 1   
    24     7    47 1   
    25     7    48 1   
    26     8    19 1   
    27     8    49 1   
    28     8    50 1   
    29     9    10 ar  
    30     9    14 ar  
    31     9    29 1   
    32    10    11 ar  
    33    10    82 1   
    34    11    12 ar  
    35    11    51 1   
    36    12    13 ar  
    37    12    40 1   
    38    13    14 ar  
    39    13    52 1   
    40    14    53 1   
    41    15    26 1   
    42    15    30 1   
    43    15    54 1   
    44    15    55 1   
    45    16    30 1   
    46    16    56 1   
    47    16    57 1   
    48    17    18 1   
    49    17    58 1   
    50    18    59 1   
    51    18    60 1   
    52    19    20 ar  
    53    19    24 ar  
    54    20    21 ar  
    55    20    61 1   
    56    21    22 ar  
    57    21    62 1   
    58    22    23 ar  
    59    22    63 1   
    60    23    24 ar  
    61    23    64 1   
    62    24    65 1   
    63    25    29 1   
    64    25    66 1   
    65    25    67 1   
    66    25    68 1   
    67    26    27 1   
    68    26    28 1   
    69    26    72 1   
    70    27    73 1   
    71    27    74 1   
    72    27    83 1   
    73    28    75 1   
    74    28    76 1   
    75    28    77 1   
    76    29    39 1   
    77    29    78 1   
    78    30    40 1   
    79    31    79 1   
    80    32    40 2   
    81    33    40 2   
    82    34    80 1   
    83    39    81 1   
    84    69    83 1   
    85    70    83 1   
    86    71    83 1   
@<TRIPOS>SUBSTRUCTURE
     1 NE7         1 TEMP              0 ****  ****    0 ROOT
