@<TRIPOS>MOLECULE
NE7
   83    86     1     0     0
SMALL
No Charge or Current Charge


@<TRIPOS>ATOM
      1 C13         71.0230    57.0610    15.0260 c3         1 NE7       0.155300
      2 C15         70.7700    57.7320    16.4130 c3         1 NE7       0.099700
      3 C17         72.8410    58.5510    17.5780 c          1 NE7       0.635100
      4 C20         74.5590    59.7520    18.7170 c5         1 NE7       0.160300
      5 C21         75.5360    60.8920    18.3230 c5         1 NE7       0.152600
      6 C24         74.4950    61.7280    20.2090 c5         1 NE7       0.368300
      7 C26         72.2060    61.7260    19.8680 c5         1 NE7       0.150600
      8 C28         69.3610    58.3610    16.5970 c3         1 NE7      -0.040100
      9 C01         66.7360    52.0640    13.0480 ca         1 NE7      -0.073300
     10 C02         67.7600    51.3270    13.6750 ca         1 NE7      -0.118500
     11 C03         68.5080    51.8890    14.7240 ca         1 NE7      -0.017000
     12 C04         68.2430    53.2040    15.1560 ca         1 NE7      -0.311500
     13 C05         67.2150    53.9450    14.5370 ca         1 NE7      -0.017000
     14 C06         66.4710    53.3780    13.4890 ca         1 NE7      -0.118500
     15 C11         71.4160    53.6050    15.0240 c3         1 NE7       0.204800
     16 C12         70.1840    55.7660    14.7920 c3         1 NE7       0.212800
     17 C23         74.0760    60.2200    20.1510 c5         1 NE7      -0.140700
     18 C25         72.5130    60.2820    20.3240 c5         1 NE7      -0.095400
     19 C29         69.1680    58.9860    17.9770 ca         1 NE7      -0.084300
     20 C30         69.1880    58.1780    19.1310 ca         1 NE7      -0.101000
     21 C31         69.0200    58.7520    20.4030 ca         1 NE7      -0.115500
     22 C32         68.8240    60.1370    20.5300 ca         1 NE7      -0.115000
     23 C33         68.7960    60.9480    19.3830 ca         1 NE7      -0.115500
     24 C34         68.9710    60.3750    18.1110 ca         1 NE7      -0.101000
     25 C35         64.4300    51.3160    12.2480 c3         1 NE7      -0.084100
     26 C37         72.8420    54.0800    14.6300 c3         1 NE7      -0.059700
     27 C38         73.5890    53.0330    13.7550 c3         1 NE7      -0.076400
     28 C39         73.6730    54.5070    15.8670 c3         1 NE7      -0.089100
     29 C40         65.9280    51.4390    11.9100 c3         1 NE7       0.209600
     30 N10         70.5400    54.6170    15.6790 n3         1 NE7      -0.744500
     31 N16         71.8030    58.7360    16.7130 ns         1 NE7      -0.502900
     32 O08         68.4700    55.0470    17.0930 o          1 NE7      -0.542000
     33 O09         69.7500    52.8630    17.3480 o          1 NE7      -0.542000
     34 O14         70.7860    58.0000    13.9560 oh         1 NE7      -0.671000
     35 O18         73.0980    57.5060    18.1540 o          1 NE7      -0.539000
     36 O19         73.4880    59.7460    17.7280 os         1 NE7      -0.459100
     37 O22         74.9370    62.0730    18.8860 os         1 NE7      -0.467000
     38 O27         73.2850    62.4620    20.4710 os         1 NE7      -0.446000
     39 O41         66.0770    52.2190    10.7210 oh         1 NE7      -0.659000
     40 S07         69.2070    53.9280    16.4970 sy         1 NE7       1.188600
     41 H131        72.0790    56.7710    15.0060 h1         1 NE7       0.053700
     42 H151        70.8600    56.9320    17.1600 h1         1 NE7       0.100700
     43 H201        75.0870    58.7870    18.7280 h1         1 NE7       0.088700
     44 H212        75.6510    61.0040    17.2370 h1         1 NE7       0.062200
     45 H211        76.5290    60.7430    18.7710 h1         1 NE7       0.062200
     46 H241        75.2740    61.9310    20.9570 h2         1 NE7       0.082700
     47 H262        71.2410    62.0980    20.2360 h1         1 NE7       0.056700
     48 H261        72.2430    61.8390    18.7760 h1         1 NE7       0.056700
     49 H282        69.1980    59.1140    15.8170 hc         1 NE7       0.066700
     50 H281        68.5910    57.5990    16.4390 hc         1 NE7       0.066700
     51 H031        69.2920    51.2980    15.1950 ha         1 NE7       0.134500
     52 H051        66.9870    54.9590    14.8620 ha         1 NE7       0.134500
     53 H061        65.6860    53.9640    13.0170 ha         1 NE7       0.126000
     54 H112        70.9190    53.2240    14.1210 h1         1 NE7       0.051200
     55 H111        71.5530    52.7430    15.6890 h1         1 NE7       0.051200
     56 H122        69.1280    56.0430    14.8930 h1         1 NE7       0.064200
     57 H121        70.3000    55.4710    13.7400 h1         1 NE7       0.064200
     58 H231        74.5570    59.6380    20.9450 hc         1 NE7       0.077700
     59 H252        72.2390    60.1630    21.3790 hc         1 NE7       0.066700
     60 H251        71.9430    59.5240    19.7810 hc         1 NE7       0.066700
     61 H301        69.3350    57.1040    19.0430 ha         1 NE7       0.120500
     62 H311        69.0400    58.1220    21.2900 ha         1 NE7       0.112000
     63 H321        68.6930    60.5810    21.5140 ha         1 NE7       0.110000
     64 H331        68.6430    62.0200    19.4790 ha         1 NE7       0.112000
     65 H341        68.9510    61.0140    17.2300 ha         1 NE7       0.120500
     66 H351        64.2930    50.7260    13.1620 hc         1 NE7       0.050033
     67 H353        63.9750    52.3010    12.4030 hc         1 NE7       0.050033
     68 H352        63.8930    50.8130    11.4340 hc         1 NE7       0.050033
     69 H363        74.3930    51.0070    13.7260 hc         1 NE7       0.034700
     70 H362        74.4860    51.7780    15.3180 hc         1 NE7       0.034700
     71 H361        72.9290    51.1680    14.7080 hc         1 NE7       0.034700
     72 H371        72.7350    54.9610    13.9880 hc         1 NE7       0.043700
     73 H381        74.5470    53.4610    13.4320 hc         1 NE7       0.039200
     74 H382        73.0100    52.8620    12.8390 hc         1 NE7       0.039200
     75 H393        73.1770    55.3190    16.4100 hc         1 NE7       0.045033
     76 H391        73.8000    53.6730    16.5670 hc         1 NE7       0.045033
     77 H392        74.6660    54.8610    15.5660 hc         1 NE7       0.045033
     78 H401        66.3100    50.4250    11.7290 h1         1 NE7       0.038700
     79 H161        71.6890    59.6790    16.3650 hn         1 NE7       0.322500
     80 H141        71.4750    58.6960    14.0290 ho         1 NE7       0.450000
     81 H411        67.0410    52.3640    10.6050 ho         1 NE7       0.444000
     82 H021        67.9790    50.3110    13.3520 ha         1 NE7       0.126000
     83 C36         73.8630    51.6660    14.4240 c3         1 NE7      -0.090100
@<TRIPOS>BOND
     1     1     2 1   
     2     1    16 1   
     3     1    34 1   
     4     1    41 1   
     5     2     8 1   
     6     2    31 1   
     7     2    42 1   
     8     3    31 1   
     9     3    35 2   
    10     3    36 1   
    11     4     5 1   
    12     4    17 1   
    13     4    36 1   
    14     4    43 1   
    15     5    37 1   
    16     5    44 1   
    17     5    45 1   
    18     6    17 1   
    19     6    37 1   
    20     6    38 1   
    21     6    46 1   
    22     7    18 1   
    23     7    38 1   
    24     7    47 1   
    25     7    48 1   
    26     8    19 1   
    27     8    49 1   
    28     8    50 1   
    29     9    10 ar  
    30     9    14 ar  
    31     9    29 1   
    32    10    11 ar  
    33    10    82 1   
    34    11    12 ar  
    35    11    51 1   
    36    12    13 ar  
    37    12    40 1   
    38    13    14 ar  
    39    13    52 1   
    40    14    53 1   
    41    15    26 1   
    42    15    30 1   
    43    15    54 1   
    44    15    55 1   
    45    16    30 1   
    46    16    56 1   
    47    16    57 1   
    48    17    18 1   
    49    17    58 1   
    50    18    59 1   
    51    18    60 1   
    52    19    20 ar  
    53    19    24 ar  
    54    20    21 ar  
    55    20    61 1   
    56    21    22 ar  
    57    21    62 1   
    58    22    23 ar  
    59    22    63 1   
    60    23    24 ar  
    61    23    64 1   
    62    24    65 1   
    63    25    29 1   
    64    25    66 1   
    65    25    67 1   
    66    25    68 1   
    67    26    27 1   
    68    26    28 1   
    69    26    72 1   
    70    27    73 1   
    71    27    74 1   
    72    27    83 1   
    73    28    75 1   
    74    28    76 1   
    75    28    77 1   
    76    29    39 1   
    77    29    78 1   
    78    30    40 1   
    79    31    79 1   
    80    32    40 2   
    81    33    40 2   
    82    34    80 1   
    83    39    81 1   
    84    69    83 1   
    85    70    83 1   
    86    71    83 1   
@<TRIPOS>SUBSTRUCTURE
     1 NE7         1 TEMP              0 ****  ****    0 ROOT
