@<TRIPOS>MOLECULE
NE8
   38    41     1     0     0
SMALL
No Charge or Current Charge


@<TRIPOS>ATOM
      1 C15         -0.1200     0.6690     1.8910 c3         1 NE8      -0.027100
      2 C14         -0.2960    -0.6280     1.0740 c3         1 NE8      -0.012100
      3 C5          -0.5520    -0.3480    -0.4120 ca         1 NE8      -0.027300
      4 C4           0.5180    -0.1790    -1.3440 ca         1 NE8       0.198400
      5 N10          1.8480    -0.2780    -0.8740 nc         1 NE8      -0.701100
      6 C9           2.7340    -0.1050    -1.8210 cd         1 NE8       0.706800
      7 N23          3.9900    -0.2000    -1.4180 nv         1 NE8      -1.035200
      8 N8           2.5430     0.1450    -3.1210 ns         1 NE8      -0.453400
      9 C7           1.3220     0.2640    -3.6740 c          1 NE8       0.590600
     10 O22          1.1720     0.4990    -4.8630 o          1 NE8      -0.545000
     11 C3           0.2070     0.0860    -2.7090 ca         1 NE8      -0.203600
     12 C2          -1.1320     0.1860    -3.1470 ca         1 NE8      -0.034000
     13 C1          -2.1350     0.0180    -2.1950 ca         1 NE8      -0.110200
     14 N11         -3.4890     0.0680    -2.3340 na         1 NE8      -0.320600
     15 C12         -4.0380    -0.1610    -1.0770 cc         1 NE8       0.435700
     16 N13         -3.0670    -0.3520    -0.1590 nd         1 NE8      -0.585100
     17 C6          -1.8760    -0.2370    -0.8830 ca         1 NE8       0.110400
     18 C16          0.1220     0.3900     3.3680 ca         1 NE8      -0.072300
     19 C17         -0.9640     0.2890     4.2590 ca         1 NE8      -0.107000
     20 C18         -0.7410     0.0260     5.6220 ca         1 NE8      -0.113000
     21 C19          0.5690    -0.1380     6.1020 ca         1 NE8      -0.116000
     22 C20          1.6570    -0.0410     5.2170 ca         1 NE8      -0.113000
     23 C21          1.4340     0.2220     3.8540 ca         1 NE8      -0.107000
     24 H151         0.7150     1.2460     1.4740 hc         1 NE8       0.052200
     25 H152        -1.0130     1.2940     1.7660 hc         1 NE8       0.052200
     26 H141        -1.1240    -1.2040     1.5020 hc         1 NE8       0.062200
     27 H142         0.5900    -1.2600     1.2060 hc         1 NE8       0.062200
     28 H231         4.0810    -0.5690    -0.4810 hn         1 NE8       0.488500
     29 H232         4.6690    -0.5410    -2.0860 hn         1 NE8       0.488500
     30 HN8          3.3290     0.2780    -3.7330 hn         1 NE8       0.324500
     31 H2          -1.3790     0.3900    -4.1880 ha         1 NE8       0.139000
     32 H11         -4.0150     0.2380    -3.1820 hn         1 NE8       0.361000
     33 H12         -5.1070    -0.1750    -0.8990 h5         1 NE8       0.061800
     34 H17         -1.9820     0.4130     3.8950 ha         1 NE8       0.112500
     35 H18         -1.5840    -0.0500     6.3060 ha         1 NE8       0.108000
     36 H19          0.7420    -0.3420     7.1560 ha         1 NE8       0.108000
     37 H20          2.6720    -0.1700     5.5860 ha         1 NE8       0.108000
     38 H21          2.2800     0.2930     3.1740 ha         1 NE8       0.112500
@<TRIPOS>BOND
     1     1     2 1   
     2     1    18 1   
     3     1    24 1   
     4     1    25 1   
     5     2     3 1   
     6     2    26 1   
     7     2    27 1   
     8     3     4 ar  
     9     3    17 ar  
    10     4     5 1   
    11     4    11 ar  
    12     5     6 2   
    13     6     7 1   
    14     6     8 1   
    15     7    28 1   
    16     7    29 1   
    17     8     9 1   
    18     8    30 1   
    19     9    10 2   
    20     9    11 1   
    21    11    12 ar  
    22    12    13 ar  
    23    12    31 1   
    24    13    14 1   
    25    13    17 ar  
    26    14    15 1   
    27    14    32 1   
    28    15    16 2   
    29    15    33 1   
    30    16    17 1   
    31    18    19 ar  
    32    18    23 ar  
    33    19    20 ar  
    34    19    34 1   
    35    20    21 ar  
    36    20    35 1   
    37    21    22 ar  
    38    21    36 1   
    39    22    23 ar  
    40    22    37 1   
    41    23    38 1   
@<TRIPOS>SUBSTRUCTURE
     1 NE8         1 TEMP              0 ****  ****    0 ROOT
