@<TRIPOS>MOLECULE
NE8
   38    41     1     0     0
SMALL
bcc


@<TRIPOS>ATOM
      1 C15         -0.1520     0.6750     1.8450 c3         1 NE8      -0.027100
      2 C14         -0.3890    -0.6300     1.0690 c3         1 NE8      -0.012100
      3 C5          -0.6320    -0.3750    -0.3850 ca         1 NE8      -0.027300
      4 C4           0.4270    -0.1980    -1.2890 ca         1 NE8       0.198400
      5 N10          1.7080    -0.2940    -0.8040 nc         1 NE8      -0.701100
      6 C9           2.6920    -0.1240    -1.6210 cd         1 NE8       0.706800
      7 N23          3.9690    -0.1480    -1.1830 nv         1 NE8      -0.924800
      8 N8           2.5200     0.1370    -2.9560 ns         1 NE8      -0.520400
      9 C7           1.2930     0.2460    -3.5640 c          1 NE8       0.733100
     10 O22          1.2100     0.4740    -4.7590 o          1 NE8      -0.620500
     11 C3           0.1640     0.0710    -2.6590 ca         1 NE8      -0.203600
     12 C2          -1.1300     0.1780    -3.1640 ca         1 NE8      -0.052000
     13 C1          -2.1540     0.0110    -2.2610 ca         1 NE8      -0.110200
     14 N11         -3.5210     0.0510    -2.3780 na         1 NE8      -0.270300
     15 C12         -4.0280    -0.1810    -1.1490 cc         1 NE8       0.435700
     16 N13         -3.1210    -0.3720    -0.2320 nd         1 NE8      -0.585100
     17 C6          -1.9210    -0.2590    -0.8940 ca         1 NE8       0.110400
     18 C16          0.1410     0.4130     3.2940 ca         1 NE8      -0.072300
     19 C17         -0.8860     0.3510     4.2350 ca         1 NE8      -0.125000
     20 C18         -0.6160     0.0660     5.5670 ca         1 NE8      -0.131000
     21 C19          0.6900    -0.1650     5.9800 ca         1 NE8      -0.134000
     22 C20          1.7220    -0.1090     5.0520 ca         1 NE8      -0.131000
     23 C21          1.4460     0.1770     3.7210 ca         1 NE8      -0.125000
     24 H151         0.6820     1.2120     1.3880 hc         1 NE8       0.052200
     25 H152        -1.0340     1.3130     1.7490 hc         1 NE8       0.052200
     26 H141        -1.2470    -1.1500     1.5000 hc         1 NE8       0.062200
     27 H142         0.4790    -1.2790     1.1930 hc         1 NE8       0.062200
     28 H231         4.1100    -0.5140    -0.2560 hn         1 NE8       0.433300
     29 H232         4.7140    -0.3410    -1.8320 hn         1 NE8       0.433300
     30 HN8          3.3320     0.2750    -3.5440 hn         1 NE8       0.324500
     31 H2          -1.3060     0.3840    -4.2110 ha         1 NE8       0.157000
     32 H11         -4.0550     0.2280    -3.2130 hn         1 NE8       0.310700
     33 H12         -5.0950    -0.1980    -0.9780 h5         1 NE8       0.061800
     34 H17         -1.9070     0.5330     3.9210 ha         1 NE8       0.130500
     35 H18         -1.4260     0.0260     6.2840 ha         1 NE8       0.126000
     36 H19          0.9020    -0.3830     7.0190 ha         1 NE8       0.126000
     37 H20          2.7430    -0.2840     5.3650 ha         1 NE8       0.126000
     38 H21          2.2560     0.2190     3.0020 ha         1 NE8       0.130500
@<TRIPOS>BOND
     1     1     2 1   
     2     1    18 1   
     3     1    24 1   
     4     1    25 1   
     5     2     3 1   
     6     2    26 1   
     7     2    27 1   
     8     3     4 ar  
     9     3    17 ar  
    10     4     5 1   
    11     4    11 ar  
    12     5     6 2   
    13     6     7 1   
    14     6     8 1   
    15     7    28 1   
    16     7    29 1   
    17     8     9 1   
    18     8    30 1   
    19     9    10 2   
    20     9    11 1   
    21    11    12 ar  
    22    12    13 ar  
    23    12    31 1   
    24    13    14 1   
    25    13    17 ar  
    26    14    15 1   
    27    14    32 1   
    28    15    16 2   
    29    15    33 1   
    30    16    17 1   
    31    18    19 ar  
    32    18    23 ar  
    33    19    20 ar  
    34    19    34 1   
    35    20    21 ar  
    36    20    35 1   
    37    21    22 ar  
    38    21    36 1   
    39    22    23 ar  
    40    22    37 1   
    41    23    38 1   
@<TRIPOS>SUBSTRUCTURE
     1 NE8         1 TEMP              0 ****  ****    0 ROOT
