@<TRIPOS>MOLECULE
NE9
   59    62     1     0     0
SMALL
abcg2


@<TRIPOS>ATOM
      1 C1          21.5300   -26.0440    -3.7260 c          1 NE9       0.594100
      2 C5          23.0000   -22.8410    -1.7780 cy         1 NE9      -0.059000
      3 C4          21.8190   -23.7960    -1.4520 cy         1 NE9      -0.095900
      4 C3          21.3690   -23.6930    -2.9270 cy         1 NE9       0.098700
      5 C2          20.7870   -27.1090    -4.5180 c3         1 NE9       0.036600
      6 C6          24.3650   -23.2600    -1.2470 c6         1 NE9      -0.084900
      7 C7          25.4510   -22.2730    -1.6660 c6         1 NE9       0.100000
      8 C8          25.9010   -20.3580    -0.2420 c          1 NE9       0.598100
      9 O1          22.6370   -26.2780    -3.2470 o          1 NE9      -0.583100
     10 O3          27.9080   -17.2120     0.1020 os         1 NE9      -0.458000
     11 N1          20.8780   -24.8740    -3.6140 ns         1 NE9      -0.489900
     12 N2          25.1200   -20.9260    -1.1880 n          1 NE9      -0.399800
     13 O2          26.9260   -20.9160     0.1620 o          1 NE9      -0.618100
     14 C9          25.5330   -18.9600     0.3470 c6         1 NE9       0.194200
     15 N3          24.1470   -18.9160     0.7880 nu         1 NE9      -0.995200
     16 C10         23.5060   -19.8010     1.6180 ca         1 NE9       0.342000
     17 C11         24.1070   -20.9630     2.1300 ca         1 NE9      -0.190000
     18 C12         23.3730   -21.8700     2.8830 ca         1 NE9      -0.054000
     19 C13         22.0360   -21.6290     3.1530 ca         1 NE9       0.065000
     20 CL2         21.1080   -22.7890     4.0910 cl         1 NE9      -0.221000
     21 C14         21.4240   -20.4700     2.6870 ca         1 NE9      -0.054000
     22 C15         22.1530   -19.5690     1.9330 ca         1 NE9      -0.190000
     23 C16         26.4760   -18.5960     1.5220 c6         1 NE9      -0.115900
     24 C17         27.8950   -18.2270     1.1070 c6         1 NE9       0.154600
     25 C18         27.1880   -17.6270    -1.0530 c6         1 NE9       0.154600
     26 C19         25.7210   -17.8760    -0.7390 c6         1 NE9      -0.115900
     27 C20         23.8510   -20.4480    -1.7440 c6         1 NE9       0.100000
     28 C21         22.7090   -21.3960    -1.3750 c6         1 NE9      -0.084900
     29 C22         22.7520   -23.1080    -3.2970 cy         1 NE9      -0.095900
     30 H1          21.1040   -23.4580    -0.7010 hc         1 NE9       0.066700
     31 H2          22.1670   -24.7960    -1.2020 hc         1 NE9       0.066700
     32 H3          20.5900   -22.9430    -3.0410 h1         1 NE9       0.053700
     33 H4          20.9210   -28.0760    -4.0440 h1         1 NE9       0.083200
     34 H5          19.7320   -26.8920    -4.6560 h1         1 NE9       0.083200
     35 CL1         21.5150   -27.2330    -6.1730 cl         1 NE9      -0.253000
     36 H7          24.3320   -23.3080    -0.1530 hc         1 NE9       0.057950
     37 H8          24.6180   -24.2570    -1.6130 hc         1 NE9       0.057950
     38 H9          26.4190   -22.5540    -1.2660 h1         1 NE9       0.057200
     39 H10         25.5250   -22.2350    -2.7570 h1         1 NE9       0.057200
     40 H11         19.9780   -24.8010    -4.0620 hn         1 NE9       0.315500
     41 H12         23.6450   -18.0700     0.5690 hn         1 NE9       0.487000
     42 H13         25.1450   -21.1830     1.9350 ha         1 NE9       0.123000
     43 H14         23.8510   -22.7670     3.2540 ha         1 NE9       0.127000
     44 H15         20.3820   -20.2770     2.9040 ha         1 NE9       0.127000
     45 H16         21.6680   -18.6780     1.5520 ha         1 NE9       0.123000
     46 H17         26.0190   -17.7330     2.0100 hc         1 NE9       0.058700
     47 H18         26.5130   -19.4060     2.2490 hc         1 NE9       0.058700
     48 H19         28.4280   -19.1070     0.7400 h1         1 NE9       0.058450
     49 H20         28.4360   -17.8170     1.9600 h1         1 NE9       0.058450
     50 H21         27.6530   -18.5280    -1.4760 h1         1 NE9       0.058450
     51 H22         27.2800   -16.8250    -1.7840 h1         1 NE9       0.058450
     52 H23         25.2840   -16.9470    -0.3610 hc         1 NE9       0.058700
     53 H24         25.1970   -18.1380    -1.6570 hc         1 NE9       0.058700
     54 H25         23.9680   -20.4080    -2.8310 h1         1 NE9       0.057200
     55 H26         23.6300   -19.4510    -1.3940 h1         1 NE9       0.057200
     56 H27         21.7930   -21.0410    -1.8530 hc         1 NE9       0.057950
     57 H28         22.5480   -21.3540    -0.2960 hc         1 NE9       0.057950
     58 H29         23.4230   -23.8680    -3.6880 hc         1 NE9       0.066700
     59 H30         22.7450   -22.2470    -3.9650 hc         1 NE9       0.066700
@<TRIPOS>BOND
     1     1     5 1   
     2     1     9 2   
     3     1    11 1   
     4     2     3 1   
     5     2     6 1   
     6     2    28 1   
     7     2    29 1   
     8     3     4 1   
     9     3    30 1   
    10     3    31 1   
    11     4    11 1   
    12     4    29 1   
    13     4    32 1   
    14     5    33 1   
    15     5    34 1   
    16     5    35 1   
    17     6     7 1   
    18     6    36 1   
    19     6    37 1   
    20     7    12 1   
    21     7    38 1   
    22     7    39 1   
    23     8    12 1   
    24     8    13 2   
    25     8    14 1   
    26    10    24 1   
    27    10    25 1   
    28    11    40 1   
    29    12    27 1   
    30    14    15 1   
    31    14    23 1   
    32    14    26 1   
    33    15    16 1   
    34    15    41 1   
    35    16    17 ar  
    36    16    22 ar  
    37    17    18 ar  
    38    17    42 1   
    39    18    19 ar  
    40    18    43 1   
    41    19    20 1   
    42    19    21 ar  
    43    21    22 ar  
    44    21    44 1   
    45    22    45 1   
    46    23    24 1   
    47    23    46 1   
    48    23    47 1   
    49    24    48 1   
    50    24    49 1   
    51    25    26 1   
    52    25    50 1   
    53    25    51 1   
    54    26    52 1   
    55    26    53 1   
    56    27    28 1   
    57    27    54 1   
    58    27    55 1   
    59    28    56 1   
    60    28    57 1   
    61    29    58 1   
    62    29    59 1   
@<TRIPOS>SUBSTRUCTURE
     1 NE9         1 TEMP              0 ****  ****    0 ROOT
