@<TRIPOS>MOLECULE
NE9
   59    62     1     0     0
SMALL
No Charge or Current Charge


@<TRIPOS>ATOM
      1 C1          21.5400   -25.9540    -4.2610 c          1 NE9       0.594100
      2 C5          23.2290   -23.0790    -1.6990 cy         1 NE9      -0.059000
      3 C4          22.2930   -24.3240    -1.5190 cy         1 NE9      -0.095900
      4 C3          21.5830   -23.8700    -2.8420 cy         1 NE9       0.098700
      5 C2          20.6040   -26.7850    -5.1600 c3         1 NE9       0.036600
      6 C6          24.7090   -23.3310    -1.3140 c6         1 NE9      -0.084900
      7 C7          25.5870   -22.1020    -1.6450 c6         1 NE9       0.100000
      8 C8          25.6610   -20.3870     0.2010 c          1 NE9       0.598100
      9 O1          22.7080   -26.2600    -4.0470 o          1 NE9      -0.583100
     10 O3          27.8700   -17.5950    -0.6750 os         1 NE9      -0.458000
     11 N1          20.9480   -24.8260    -3.7170 ns         1 NE9      -0.489900
     12 N2          25.0810   -20.8580    -1.0020 n          1 NE9      -0.399800
     13 O2          26.2180   -21.1960     0.9400 o          1 NE9      -0.618100
     14 C9          25.5390   -18.8340     0.6130 c6         1 NE9       0.194200
     15 N3          24.3510   -18.5110     1.4710 nu         1 NE9      -0.995200
     16 C10         23.5160   -19.4670     2.0450 ca         1 NE9       0.342000
     17 C11         24.0140   -20.4180     2.9480 ca         1 NE9      -0.190000
     18 C12         23.1560   -21.3840     3.5060 ca         1 NE9      -0.054000
     19 C13         21.7930   -21.3860     3.1690 ca         1 NE9       0.065000
     20 Cl2         20.7190   -22.5960     3.8580 cl         1 NE9      -0.221000
     21 C14         21.2850   -20.4190     2.2850 ca         1 NE9      -0.054000
     22 C15         22.1480   -19.4560     1.7300 ca         1 NE9      -0.190000
     23 C16         26.8200   -18.3870     1.3870 c6         1 NE9      -0.115900
     24 C17         28.0720   -18.4400     0.4770 c6         1 NE9       0.154600
     25 C18         26.7350   -17.9650    -1.4860 c6         1 NE9       0.154600
     26 C19         25.4450   -17.8870    -0.6330 c6         1 NE9      -0.115900
     27 C20         23.6570   -20.5730    -1.3360 c6         1 NE9       0.100000
     28 C21         22.7340   -21.7730    -1.0100 c6         1 NE9      -0.084900
     29 C22         22.9330   -23.1750    -3.2370 cy         1 NE9      -0.095900
     30 H1          21.6650   -24.3290    -0.6220 hc         1 NE9       0.066700
     31 H2          22.8060   -25.2890    -1.5830 hc         1 NE9       0.066700
     32 H3          20.8110   -23.1200    -2.6280 h1         1 NE9       0.053700
     33 H4          19.6420   -26.9230    -4.6500 h1         1 NE9       0.083200
     34 H5          20.4330   -26.2280    -6.0890 h1         1 NE9       0.083200
     35 Cl1         21.2410   -28.4430    -5.6030 cl         1 NE9      -0.253000
     36 H7          24.7810   -23.5490    -0.2400 hc         1 NE9       0.057950
     37 H8          25.1020   -24.2150    -1.8350 hc         1 NE9       0.057950
     38 H9          26.6240   -22.2940    -1.3340 h1         1 NE9       0.057200
     39 H10         25.6050   -21.9520    -2.7340 h1         1 NE9       0.057200
     40 H11         19.9780   -24.6790    -3.9710 hn         1 NE9       0.315500
     41 H12         23.8490   -17.6610     1.2090 hn         1 NE9       0.487000
     42 H13         25.0650   -20.4100     3.2190 ha         1 NE9       0.123000
     43 H14         23.5470   -22.1260     4.1980 ha         1 NE9       0.127000
     44 H15         20.2280   -20.4170     2.0300 ha         1 NE9       0.127000
     45 H16         21.7530   -18.7130     1.0440 ha         1 NE9       0.123000
     46 H17         26.6980   -17.3630     1.7640 hc         1 NE9       0.058700
     47 H18         26.9760   -19.0190     2.2710 hc         1 NE9       0.058700
     48 H19         28.2760   -19.4690     0.1470 h1         1 NE9       0.058450
     49 H20         28.9520   -18.0820     1.0310 h1         1 NE9       0.058450
     50 H21         26.8840   -18.9770    -1.8900 h1         1 NE9       0.058450
     51 H22         26.6640   -17.2700    -2.3350 h1         1 NE9       0.058450
     52 H23         25.3190   -16.8460    -0.3030 hc         1 NE9       0.058700
     53 H24         24.5760   -18.0940    -1.2650 hc         1 NE9       0.058700
     54 H25         23.5830   -20.3270    -2.4050 h1         1 NE9       0.057200
     55 H26         23.2900   -19.7060    -0.7760 h1         1 NE9       0.057200
     56 H27         21.7040   -21.5260    -1.2990 hc         1 NE9       0.057950
     57 H28         22.7160   -21.9220     0.0780 hc         1 NE9       0.057950
     58 H29         23.6300   -23.8100    -3.7940 hc         1 NE9       0.066700
     59 H30         22.8360   -22.2260    -3.7740 hc         1 NE9       0.066700
@<TRIPOS>BOND
     1     1     5 1   
     2     1     9 2   
     3     1    11 1   
     4     2     3 1   
     5     2     6 1   
     6     2    28 1   
     7     2    29 1   
     8     3     4 1   
     9     3    30 1   
    10     3    31 1   
    11     4    11 1   
    12     4    29 1   
    13     4    32 1   
    14     5    33 1   
    15     5    34 1   
    16     5    35 1   
    17     6     7 1   
    18     6    36 1   
    19     6    37 1   
    20     7    12 1   
    21     7    38 1   
    22     7    39 1   
    23     8    12 1   
    24     8    13 2   
    25     8    14 1   
    26    10    24 1   
    27    10    25 1   
    28    11    40 1   
    29    12    27 1   
    30    14    15 1   
    31    14    23 1   
    32    14    26 1   
    33    15    16 1   
    34    15    41 1   
    35    16    17 ar  
    36    16    22 ar  
    37    17    18 ar  
    38    17    42 1   
    39    18    19 ar  
    40    18    43 1   
    41    19    20 1   
    42    19    21 ar  
    43    21    22 ar  
    44    21    44 1   
    45    22    45 1   
    46    23    24 1   
    47    23    46 1   
    48    23    47 1   
    49    24    48 1   
    50    24    49 1   
    51    25    26 1   
    52    25    50 1   
    53    25    51 1   
    54    26    52 1   
    55    26    53 1   
    56    27    28 1   
    57    27    54 1   
    58    27    55 1   
    59    28    56 1   
    60    28    57 1   
    61    29    58 1   
    62    29    59 1   
@<TRIPOS>SUBSTRUCTURE
     1 NE9         1 TEMP              0 ****  ****    0 ROOT
