@<TRIPOS>MOLECULE
NEA
   40    42     1     0     0
SMALL
abcg2


@<TRIPOS>ATOM
      1 N            2.8320    -0.5110     6.2920 n8         1 NEA      -0.997200
      2 CB           2.3210     0.2750     5.1810 c3         1 NEA       0.159800
      3 CG           1.1040    -0.4130     4.5800 c3         1 NEA       0.050600
      4 SD           0.4810     0.5740     3.1910 ss         1 NEA      -0.398000
      5 C5          -0.9330    -0.4490     2.6980 c3         1 NEA       0.025600
      6 C4          -1.8770     0.3690     1.8320 c5         1 NEA       0.179300
      7 O4          -1.1670     1.0460     0.7900 os         1 NEA      -0.432000
      8 C3          -2.9040    -0.4970     1.1190 c5         1 NEA       0.111300
      9 O3          -4.0210     0.2940     0.8130 oh         1 NEA      -0.702000
     10 C2          -2.1340    -0.8710    -0.1510 c5         1 NEA       0.079300
     11 O2          -2.9330    -1.2170    -1.2420 oh         1 NEA      -0.688000
     12 C1          -1.3830     0.4310    -0.4450 c5         1 NEA       0.320300
     13 N9          -0.1110     0.2280    -1.1030 na         1 NEA      -0.296300
     14 C8           1.0790    -0.1300    -0.5260 cc         1 NEA       0.409700
     15 N7           2.0420    -0.2830    -1.3870 nd         1 NEA      -0.557100
     16 C7           1.4610    -0.0200    -2.6000 ca         1 NEA      -0.101600
     17 C6           1.9590    -0.0100    -3.9160 ca         1 NEA       0.449900
     18 N6           3.2280    -0.3010    -4.2080 nv         1 NEA      -1.067900
     19 N1           1.1150     0.3110    -4.9030 nb         1 NEA      -0.303000
     20 C10         -0.1480     0.6070    -4.6040 ca         1 NEA       0.179900
     21 N3          -0.7300     0.6260    -3.4170 nb         1 NEA      -0.213000
     22 C9           0.1220     0.3040    -2.4460 ca         1 NEA       0.134500
     23 HN1          3.6990    -0.1020     6.6170 hn         1 NEA       0.395500
     24 HN2          2.1910    -0.4470     7.0740 hn         1 NEA       0.395500
     25 HB1          2.0520     1.3050     5.4540 h1         1 NEA       0.043700
     26 HB2          3.1030     0.3460     4.4220 h1         1 NEA       0.043700
     27 HG1          1.3700    -1.4130     4.2330 h1         1 NEA       0.063700
     28 HG2          0.3140    -0.5090     5.3290 h1         1 NEA       0.063700
     29 H5'1        -0.5820    -1.3490     2.1860 h1         1 NEA       0.063700
     30 H5'2        -1.4710    -0.7700     3.5920 h1         1 NEA       0.063700
     31 H4          -2.3570     1.1290     2.4540 h1         1 NEA       0.108700
     32 H3          -3.1770    -1.3810     1.7100 h1         1 NEA       0.055700
     33 H3T         -4.4980    -0.1300     0.0890 ho         1 NEA       0.525000
     34 H2          -1.4110    -1.6620     0.0820 h1         1 NEA       0.055700
     35 HO'2        -3.1520    -2.1520    -1.1820 ho         1 NEA       0.514000
     36 H1          -1.9750     1.0680    -1.1110 h2         1 NEA       0.123700
     37 H8           1.1880    -0.2300     0.5450 h5         1 NEA       0.082800
     38 H61          3.5400    -0.3090    -5.1640 hn         1 NEA       0.506500
     39 H62          3.8780    -0.5680    -3.4910 hn         1 NEA       0.506500
     40 H7          -0.7770     0.8640    -5.4490 h5         1 NEA       0.045100
@<TRIPOS>BOND
     1     1     2 1   
     2     1    23 1   
     3     1    24 1   
     4     2     3 1   
     5     2    25 1   
     6     2    26 1   
     7     3     4 1   
     8     3    27 1   
     9     3    28 1   
    10     4     5 1   
    11     5     6 1   
    12     5    29 1   
    13     5    30 1   
    14     6     7 1   
    15     6     8 1   
    16     6    31 1   
    17     7    12 1   
    18     8     9 1   
    19     8    10 1   
    20     8    32 1   
    21     9    33 1   
    22    10    11 1   
    23    10    12 1   
    24    10    34 1   
    25    11    35 1   
    26    12    13 1   
    27    12    36 1   
    28    13    14 1   
    29    13    22 1   
    30    14    15 2   
    31    14    37 1   
    32    15    16 1   
    33    16    17 ar  
    34    16    22 ar  
    35    17    18 1   
    36    17    19 ar  
    37    18    38 1   
    38    18    39 1   
    39    19    20 ar  
    40    20    21 ar  
    41    20    40 1   
    42    21    22 ar  
@<TRIPOS>SUBSTRUCTURE
     1 NEA         1 TEMP              0 ****  ****    0 ROOT
