@<TRIPOS>MOLECULE
NEA
   40    42     1     0     0
SMALL
No Charge or Current Charge


@<TRIPOS>ATOM
      1 N            3.4190    -0.2240     5.4710 n8         1 NEA      -0.997200
      2 CB           2.5210     0.6590     4.6910 c3         1 NEA       0.159800
      3 CG           1.3080    -0.1030     4.1120 c3         1 NEA       0.050600
      4 SD           0.2120     1.0370     3.1480 ss         1 NEA      -0.398000
      5 C5          -1.0940    -0.1610     2.6020 c3         1 NEA       0.025600
      6 C4          -2.1850     0.4950     1.7100 c5         1 NEA       0.179300
      7 O4          -1.5970     0.9780     0.4770 os         1 NEA      -0.432000
      8 C3          -3.3040    -0.4850     1.2330 c5         1 NEA       0.111300
      9 O3          -4.4660     0.1800     0.7230 oh         1 NEA      -0.702000
     10 C2          -2.5640    -1.2170     0.0780 c5         1 NEA       0.079300
     11 O2          -3.5090    -1.8160    -0.8340 oh         1 NEA      -0.688000
     12 C1          -1.7190    -0.0390    -0.5470 c5         1 NEA       0.320300
     13 N9          -0.3920    -0.3450    -1.0870 na         1 NEA      -0.296300
     14 C8           0.4720    -1.3610    -0.6590 cc         1 NEA       0.409700
     15 N7           1.6050    -1.3840    -1.3860 nd         1 NEA      -0.557100
     16 C7           1.4270    -0.3330    -2.2910 ca         1 NEA      -0.101600
     17 C6           2.2850     0.1290    -3.3110 ca         1 NEA       0.449900
     18 N6           3.4960    -0.4350    -3.5630 nv         1 NEA      -1.067900
     19 N1           1.9350     1.1570    -4.1000 nb         1 NEA      -0.303000
     20 C10          0.7250     1.7140    -3.8490 ca         1 NEA       0.179900
     21 N3          -0.1590     1.3380    -2.8940 nb         1 NEA      -0.213000
     22 C9           0.2230     0.3020    -2.1210 ca         1 NEA       0.134500
     23 HN1          4.1860     0.3390     5.8610 hn         1 NEA       0.395500
     24 HN2          2.9210    -0.5570     6.3070 hn         1 NEA       0.395500
     25 HB1          2.1670     1.4710     5.3410 h1         1 NEA       0.043700
     26 HB2          3.0950     1.1040     3.8660 h1         1 NEA       0.043700
     27 HG1          1.6580    -0.9060     3.4510 h1         1 NEA       0.063700
     28 HG2          0.7270    -0.5510     4.9280 h1         1 NEA       0.063700
     29 H5'1        -0.6090    -0.9840     2.0650 h1         1 NEA       0.063700
     30 H5'2        -1.5740    -0.5800     3.4950 h1         1 NEA       0.063700
     31 H4          -2.6130     1.3420     2.2630 h1         1 NEA       0.108700
     32 H3          -3.5890    -1.1860     2.0310 h1         1 NEA       0.055700
     33 H3T         -4.7210    -0.3770    -0.0550 ho         1 NEA       0.525000
     34 H2          -1.9120    -1.9930     0.5000 h1         1 NEA       0.055700
     35 HO'2        -3.0190    -2.4580    -1.4030 ho         1 NEA       0.514000
     36 H1          -2.2860     0.3880    -1.3850 h2         1 NEA       0.123700
     37 H8           0.2340    -2.0310     0.1580 h5         1 NEA       0.082800
     38 H61          3.9210    -0.2650    -4.4700 hn         1 NEA       0.506500
     39 H62          3.6820    -1.3380    -3.1340 hn         1 NEA       0.506500
     40 H7           0.4310     2.5500    -4.4820 h5         1 NEA       0.045100
@<TRIPOS>BOND
     1     1     2 1   
     2     1    23 1   
     3     1    24 1   
     4     2     3 1   
     5     2    25 1   
     6     2    26 1   
     7     3     4 1   
     8     3    27 1   
     9     3    28 1   
    10     4     5 1   
    11     5     6 1   
    12     5    29 1   
    13     5    30 1   
    14     6     7 1   
    15     6     8 1   
    16     6    31 1   
    17     7    12 1   
    18     8     9 1   
    19     8    10 1   
    20     8    32 1   
    21     9    33 1   
    22    10    11 1   
    23    10    12 1   
    24    10    34 1   
    25    11    35 1   
    26    12    13 1   
    27    12    36 1   
    28    13    14 1   
    29    13    22 1   
    30    14    15 2   
    31    14    37 1   
    32    15    16 1   
    33    16    17 ar  
    34    16    22 ar  
    35    17    18 1   
    36    17    19 ar  
    37    18    38 1   
    38    18    39 1   
    39    19    20 ar  
    40    20    21 ar  
    41    20    40 1   
    42    21    22 ar  
@<TRIPOS>SUBSTRUCTURE
     1 NEA         1 TEMP              0 ****  ****    0 ROOT
