@<TRIPOS>MOLECULE
NEB
   26    26     1     0     0
SMALL
abcg2


@<TRIPOS>ATOM
      1 C1          -1.2070     0.8920     0.3250 c6         1 NEB       0.109300
      2 N1          -2.4980     1.5080    -0.0910 nz         1 NEB      -0.971000
      3 C2          -0.0400     1.7360    -0.1500 c6         1 NEB      -0.106400
      4 C3           1.2930     1.1080     0.2520 c6         1 NEB       0.178500
      5 N3           2.3730     1.9650    -0.1990 n8         1 NEB      -0.982200
      6 C4           1.3740    -0.3350    -0.2540 c6         1 NEB       0.130300
      7 O4           2.5820    -0.8880     0.2070 oh         1 NEB      -0.703000
      8 C5           0.1810    -1.1600     0.2200 c6         1 NEB       0.119300
      9 O5           0.2990    -2.4570    -0.3230 oh         1 NEB      -0.651000
     10 C6          -1.1360    -0.5230    -0.2210 c6         1 NEB       0.124300
     11 O6          -2.2540    -1.2280     0.2620 oh         1 NEB      -0.742000
     12 H1          -1.2400     0.8670     1.4170 hx         1 NEB       0.121700
     13 H11         -2.5500     1.6530    -1.1000 hn         1 NEB       0.514333
     14 H12         -3.2850     0.9100     0.1690 hn         1 NEB       0.514333
     15 H13         -2.6480     2.4140     0.3510 hn         1 NEB       0.514333
     16 H21         -0.0840     1.8370    -1.2410 hc         1 NEB       0.076700
     17 H22         -0.1040     2.7410     0.2700 hc         1 NEB       0.076700
     18 H3           1.3390     1.0820     1.3480 h1         1 NEB       0.085700
     19 H31          3.2590     1.5900     0.1150 hn         1 NEB       0.422000
     20 H32          2.4130     1.9590    -1.2120 hn         1 NEB       0.422000
     21 H4           1.3550    -0.3060    -1.3570 h1         1 NEB       0.046700
     22 HO4          2.6610    -1.7750    -0.1570 ho         1 NEB       0.538000
     23 H5           0.1980    -1.1980     1.3190 h1         1 NEB       0.071700
     24 HO5         -0.0060    -3.0980     0.3250 ho         1 NEB       0.473000
     25 H6          -1.1490    -0.4750    -1.3200 h1         1 NEB       0.063700
     26 HO6         -2.4510    -1.9510    -0.3410 ho         1 NEB       0.551000
@<TRIPOS>BOND
     1     1     2 1   
     2     1     3 1   
     3     1    10 1   
     4     1    12 1   
     5     2    13 1   
     6     2    14 1   
     7     2    15 1   
     8     3     4 1   
     9     3    16 1   
    10     3    17 1   
    11     4     5 1   
    12     4     6 1   
    13     4    18 1   
    14     5    19 1   
    15     5    20 1   
    16     6     7 1   
    17     6     8 1   
    18     6    21 1   
    19     7    22 1   
    20     8     9 1   
    21     8    10 1   
    22     8    23 1   
    23     9    24 1   
    24    10    11 1   
    25    10    25 1   
    26    11    26 1   
@<TRIPOS>SUBSTRUCTURE
     1 NEB         1 TEMP              0 ****  ****    0 ROOT
