@<TRIPOS>MOLECULE
NEB
   26    26     1     0     0
SMALL
No Charge or Current Charge


@<TRIPOS>ATOM
      1 C1          -1.2130     0.8700     0.3610 c6         1 NEB       0.109300
      2 N1          -2.5470     1.4860    -0.1110 nz         1 NEB      -0.971000
      3 C2          -0.0490     1.7630    -0.1340 c6         1 NEB      -0.106400
      4 C3           1.3180     1.1600     0.2770 c6         1 NEB       0.178500
      5 N3           2.4310     2.0180    -0.1960 n8         1 NEB      -0.982200
      6 C4           1.4630    -0.3040    -0.2580 c6         1 NEB       0.130300
      7 O4           2.7240    -0.8810     0.1270 oh         1 NEB      -0.703000
      8 C5           0.2930    -1.1880     0.2680 c6         1 NEB       0.119300
      9 O5           0.4410    -2.5380    -0.2110 oh         1 NEB      -0.651000
     10 C6          -1.0790    -0.5880    -0.1770 c6         1 NEB       0.124300
     11 O6          -2.1650    -1.3930     0.3270 oh         1 NEB      -0.742000
     12 H1          -1.2430     0.8560     1.4590 hx         1 NEB       0.121700
     13 H11         -2.6250     1.5720    -1.1350 hn         1 NEB       0.514333
     14 H12         -3.3540     0.9150     0.1850 hn         1 NEB       0.514333
     15 H13         -2.7190     2.4300     0.2700 hn         1 NEB       0.514333
     16 H21         -0.0970     1.8710    -1.2270 hc         1 NEB       0.076700
     17 H22         -0.1490     2.7710     0.2890 hc         1 NEB       0.076700
     18 H3           1.3720     1.1280     1.3790 h1         1 NEB       0.085700
     19 H31          3.2960     1.4800    -0.0470 hn         1 NEB       0.422000
     20 H32          2.3870     2.0810    -1.2190 hn         1 NEB       0.422000
     21 H4           1.3960    -0.2760    -1.3560 h1         1 NEB       0.046700
     22 HO4          2.5920    -1.8560     0.0270 ho         1 NEB       0.538000
     23 H5           0.3240    -1.1790     1.3690 h1         1 NEB       0.071700
     24 HO5         -0.3710    -3.0150     0.0780 ho         1 NEB       0.473000
     25 H6          -1.1020    -0.5560    -1.2780 h1         1 NEB       0.063700
     26 HO6         -2.6490    -1.7610    -0.4530 ho         1 NEB       0.551000
@<TRIPOS>BOND
     1     1     2 1   
     2     1     3 1   
     3     1    10 1   
     4     1    12 1   
     5     2    13 1   
     6     2    14 1   
     7     2    15 1   
     8     3     4 1   
     9     3    16 1   
    10     3    17 1   
    11     4     5 1   
    12     4     6 1   
    13     4    18 1   
    14     5    19 1   
    15     5    20 1   
    16     6     7 1   
    17     6     8 1   
    18     6    21 1   
    19     7    22 1   
    20     8     9 1   
    21     8    10 1   
    22     8    23 1   
    23     9    24 1   
    24    10    11 1   
    25    10    25 1   
    26    11    26 1   
@<TRIPOS>SUBSTRUCTURE
     1 NEB         1 TEMP              0 ****  ****    0 ROOT
