@<TRIPOS>MOLECULE
NEC
   38    40     1     0     0
SMALL
No Charge or Current Charge


@<TRIPOS>ATOM
      1 C5           0.2140     0.7490     2.1060 c          1 NEC       0.593100
      2 O5           1.0410     1.1640     1.3040 o          1 NEC      -0.594100
      3 N5           0.5150     0.5050     3.4300 ns         1 NEC      -0.504900
      4 C51          1.8420     0.6770     4.0180 c3         1 NEC       0.104000
      5 C52          1.8900     0.1500     5.4600 c3         1 NEC      -0.113100
      6 C4          -1.3040     0.4690     1.8690 c5         1 NEC       0.049300
      7 O4          -1.7510     0.9180     0.5550 os         1 NEC      -0.415000
      8 C3          -1.5670    -1.0770     1.9280 c5         1 NEC       0.100300
      9 O3          -2.1840    -1.4800     3.1650 oh         1 NEC      -0.710000
     10 C2          -2.5330    -1.3060     0.7230 c5         1 NEC       0.133300
     11 O2          -3.8830    -1.0520     1.1460 oh         1 NEC      -0.705000
     12 C1          -1.9900    -0.2350    -0.2840 c5         1 NEC       0.321300
     13 N9          -0.7700    -0.5380    -1.0510 na         1 NEC      -0.312300
     14 C8          -0.0260    -1.7260    -1.0140 cc         1 NEC       0.419700
     15 N7           1.0180    -1.6810    -1.8630 nd         1 NEC      -0.558100
     16 C7           0.9040    -0.4170    -2.4470 ca         1 NEC      -0.096600
     17 C6           1.7180     0.1990    -3.4210 ca         1 NEC       0.450900
     18 N6           2.8100    -0.4100    -3.9580 nv         1 NEC      -1.064900
     19 N1           1.4520     1.4360    -3.8680 nb         1 NEC      -0.304000
     20 C10          0.3620     2.0390    -3.3340 ca         1 NEC       0.180900
     21 N3          -0.4740     1.5240    -2.4010 nb         1 NEC      -0.224000
     22 C9          -0.1730     0.2840    -1.9670 ca         1 NEC       0.117500
     23 HN5         -0.2390     0.1630     4.0170 hn         1 NEC       0.320500
     24 H511         2.1010     1.7440     4.0070 h1         1 NEC       0.054700
     25 H512         2.5780     0.1370     3.4070 h1         1 NEC       0.054700
     26 H521         2.8930     0.2870     5.8810 hc         1 NEC       0.044367
     27 H522         1.1750     0.6880     6.0940 hc         1 NEC       0.044367
     28 H523         1.6480    -0.9200     5.4900 hc         1 NEC       0.044367
     29 H4          -1.8780     1.0100     2.6330 h1         1 NEC       0.080700
     30 H3          -0.6260    -1.6260     1.7720 h1         1 NEC       0.069700
     31 HO3         -1.9080    -2.4120     3.3530 ho         1 NEC       0.523000
     32 H2          -2.4480    -2.3240     0.3170 h1         1 NEC       0.081700
     33 HO2         -3.8100    -1.0740     2.1350 ho         1 NEC       0.529000
     34 H1          -2.7560    -0.0020    -1.0360 h2         1 NEC       0.128700
     35 H8          -0.2840    -2.5650    -0.3780 h5         1 NEC       0.098800
     36 HN61         3.5060     0.1750    -4.4120 hn         1 NEC       0.506500
     37 HN62         3.1520    -1.2420    -3.4830 hn         1 NEC       0.506500
     38 H6           0.1340     3.0420    -3.6920 h5         1 NEC       0.045100
@<TRIPOS>BOND
     1     1     2 2   
     2     1     3 1   
     3     1     6 1   
     4     3     4 1   
     5     3    23 1   
     6     4     5 1   
     7     4    24 1   
     8     4    25 1   
     9     5    26 1   
    10     5    27 1   
    11     5    28 1   
    12     6     7 1   
    13     6     8 1   
    14     6    29 1   
    15     7    12 1   
    16     8     9 1   
    17     8    10 1   
    18     8    30 1   
    19     9    31 1   
    20    10    11 1   
    21    10    12 1   
    22    10    32 1   
    23    11    33 1   
    24    12    13 1   
    25    12    34 1   
    26    13    14 1   
    27    13    22 1   
    28    14    15 2   
    29    14    35 1   
    30    15    16 1   
    31    16    17 ar  
    32    16    22 ar  
    33    17    18 1   
    34    17    19 ar  
    35    18    36 1   
    36    18    37 1   
    37    19    20 ar  
    38    20    21 ar  
    39    20    38 1   
    40    21    22 ar  
@<TRIPOS>SUBSTRUCTURE
     1 NEC         1 TEMP              0 ****  ****    0 ROOT
