@<TRIPOS>MOLECULE
NEC
   38    40     1     0     0
SMALL
bcc


@<TRIPOS>ATOM
      1 C5           0.6580     0.2700     2.9900 c          1 NEC       0.660100
      2 O5           1.7550     0.1180     2.4710 o          1 NEC      -0.594100
      3 N5           0.4400     0.1780     4.3040 ns         1 NEC      -0.571900
      4 C51          1.4870    -0.1430     5.2570 c3         1 NEC       0.104000
      5 C52          0.8990    -0.3590     6.6380 c3         1 NEC      -0.113100
      6 C4          -0.5970     0.4920     2.1640 c5         1 NEC       0.026100
      7 O4          -0.2980     1.3050     1.0480 os         1 NEC      -0.368600
      8 C3          -1.1260    -0.8230     1.5660 c5         1 NEC       0.077100
      9 O3          -1.9640    -1.5400     2.4160 oh         1 NEC      -0.587800
     10 C2          -1.8770    -0.2950     0.3460 c5         1 NEC       0.110100
     11 O2          -3.1040     0.2810     0.7020 oh         1 NEC      -0.582800
     12 C1          -0.9570     0.8430    -0.0970 c5         1 NEC       0.268800
     13 N9           0.0270     0.4030    -1.0730 na         1 NEC      -0.283000
     14 C8           1.3250     0.0130    -0.8710 cc         1 NEC       0.419700
     15 N7           1.9320    -0.3300    -1.9700 nd         1 NEC      -0.558100
     16 C7           0.9900    -0.1620    -2.9500 ca         1 NEC      -0.227200
     17 C6           1.0080    -0.3520    -4.3450 ca         1 NEC       0.779200
     18 N6           2.0830    -0.7930    -4.9990 nv         1 NEC      -0.954500
     19 N1          -0.1100    -0.0840    -5.0280 nb         1 NEC      -0.830000
     20 C10         -1.1850     0.3480    -4.3730 ca         1 NEC       0.706900
     21 N3          -1.3250     0.5630    -3.0760 nb         1 NEC      -0.750000
     22 C9          -0.2020     0.2940    -2.4120 ca         1 NEC       0.445800
     23 HN5         -0.4760     0.4000     4.6620 hn         1 NEC       0.320500
     24 H511         2.2260     0.6620     5.2840 h1         1 NEC       0.054700
     25 H512         2.0070    -1.0430     4.9260 h1         1 NEC       0.054700
     26 H521         1.6940    -0.6020     7.3420 hc         1 NEC       0.044367
     27 H522         0.3950     0.5370     7.0030 hc         1 NEC       0.044367
     28 H523         0.1850    -1.1830     6.6430 hc         1 NEC       0.044367
     29 H4          -1.3830     0.9580     2.7710 h1         1 NEC       0.080700
     30 H3          -0.2800    -1.4300     1.2190 h1         1 NEC       0.069700
     31 HO3         -1.4480    -2.1870     2.9050 ho         1 NEC       0.424000
     32 H2          -1.9900    -1.0550    -0.4360 h1         1 NEC       0.081700
     33 HO2         -3.6430    -0.3910     1.1320 ho         1 NEC       0.430000
     34 H1          -1.5290     1.6490    -0.5650 h2         1 NEC       0.128700
     35 H8           1.7660     0.0070     0.1150 h5         1 NEC       0.098800
     36 HN61         2.0710    -0.8670    -6.0020 hn         1 NEC       0.451300
     37 HN62         2.9510    -0.9580    -4.5200 hn         1 NEC       0.451300
     38 H6          -2.0570     0.5470    -4.9880 h5         1 NEC       0.045100
@<TRIPOS>BOND
     1     1     2 2   
     2     1     3 1   
     3     1     6 1   
     4     3     4 1   
     5     3    23 1   
     6     4     5 1   
     7     4    24 1   
     8     4    25 1   
     9     5    26 1   
    10     5    27 1   
    11     5    28 1   
    12     6     7 1   
    13     6     8 1   
    14     6    29 1   
    15     7    12 1   
    16     8     9 1   
    17     8    10 1   
    18     8    30 1   
    19     9    31 1   
    20    10    11 1   
    21    10    12 1   
    22    10    32 1   
    23    11    33 1   
    24    12    13 1   
    25    12    34 1   
    26    13    14 1   
    27    13    22 1   
    28    14    15 2   
    29    14    35 1   
    30    15    16 1   
    31    16    17 ar  
    32    16    22 ar  
    33    17    18 1   
    34    17    19 ar  
    35    18    36 1   
    36    18    37 1   
    37    19    20 ar  
    38    20    21 ar  
    39    20    38 1   
    40    21    22 ar  
@<TRIPOS>SUBSTRUCTURE
     1 NEC         1 TEMP              0 ****  ****    0 ROOT
