@<TRIPOS>MOLECULE
NEE
   39    41     1     0     0
SMALL
abcg2


@<TRIPOS>ATOM
      1 CAA          3.7320     1.9860    -1.3540 c3         1 NEE      -0.048800
      2 CAP          3.2780     0.7860    -0.5800 ca         1 NEE      -0.031300
      3 CAJ          1.9230     0.5900    -0.3290 ca         1 NEE      -0.154500
      4 CAU          4.1770    -0.1620    -0.0980 ca         1 NEE       0.089000
      5 CL1          5.8750     0.0680    -0.3990 cl         1 NEE      -0.210000
      6 CAQ          3.7710    -1.2900     0.6140 ca         1 NEE      -0.031300
      7 CAB          4.7500    -2.3050     1.1170 c3         1 NEE      -0.048800
      8 CAK          2.4120    -1.4490     0.8540 ca         1 NEE      -0.154500
      9 CAT          1.4960    -0.5180     0.3870 ca         1 NEE       0.137100
     10 OAO          0.1820    -0.7850     0.6310 os         1 NEE      -0.250200
     11 CAS         -0.7310     0.2360     0.6510 ca         1 NEE       0.109100
     12 CAL         -1.8170     0.1500    -0.2020 ca         1 NEE      -0.096000
     13 CAG         -0.6020     1.2970     1.5410 ca         1 NEE      -0.127000
     14 CAD         -1.5810     2.2750     1.5630 ca         1 NEE      -0.096000
     15 CAF         -2.6810     2.1950     0.7150 ca         1 NEE      -0.105000
     16 CAR         -2.8040     1.1320    -0.1680 ca         1 NEE      -0.103300
     17 CAM         -3.9910     1.0300    -1.0900 c3         1 NEE       0.121900
     18 NAV         -4.7640    -0.1710    -0.8450 na         1 NEE      -0.171500
     19 CAH         -5.4310    -0.4840     0.3060 cc         1 NEE      -0.226000
     20 CAE         -5.9900    -1.7090     0.0800 cd         1 NEE       0.228900
     21 NAN         -5.6770    -2.1490    -1.1750 nd         1 NEE      -0.669000
     22 CAI         -4.9410    -1.2030    -1.6980 cc         1 NEE       0.385400
     23 H1           4.3900     2.6180    -0.7560 hc         1 NEE       0.050867
     24 H2           4.2870     1.7000    -2.2470 hc         1 NEE       0.050867
     25 H3           2.8800     2.5880    -1.6670 hc         1 NEE       0.050867
     26 H4           1.2130     1.3140    -0.7100 ha         1 NEE       0.130500
     27 H5           5.4800    -1.8550     1.7920 hc         1 NEE       0.050867
     28 H6           4.2380    -3.1000     1.6550 hc         1 NEE       0.050867
     29 H7           5.3090    -2.7580     0.2970 hc         1 NEE       0.050867
     30 H8           2.0640    -2.3140     1.4050 ha         1 NEE       0.130500
     31 H9          -1.8900    -0.6850    -0.8900 ha         1 NEE       0.137000
     32 H10          0.2460     1.3530     2.2110 ha         1 NEE       0.132000
     33 H11         -1.4930     3.1030     2.2540 ha         1 NEE       0.121000
     34 H12         -3.4440     2.9620     0.7490 ha         1 NEE       0.117000
     35 H13         -4.6360     1.9010    -0.9780 h1         1 NEE       0.066200
     36 H14         -3.6650     1.0000    -2.1310 h1         1 NEE       0.066200
     37 H15         -5.4500     0.1740     1.1590 h4         1 NEE       0.157000
     38 H16         -6.6010    -2.2900     0.7540 h4         1 NEE       0.037100
     39 H17         -4.5110    -1.2040    -2.6890 h5         1 NEE       0.051100
@<TRIPOS>BOND
     1     1     2 1   
     2     1    23 1   
     3     1    24 1   
     4     1    25 1   
     5     2     3 ar  
     6     2     4 ar  
     7     3     9 ar  
     8     3    26 1   
     9     4     5 1   
    10     4     6 ar  
    11     6     7 1   
    12     6     8 ar  
    13     7    27 1   
    14     7    28 1   
    15     7    29 1   
    16     8     9 ar  
    17     8    30 1   
    18     9    10 1   
    19    10    11 1   
    20    11    12 ar  
    21    11    13 ar  
    22    12    16 ar  
    23    12    31 1   
    24    13    14 ar  
    25    13    32 1   
    26    14    15 ar  
    27    14    33 1   
    28    15    16 ar  
    29    15    34 1   
    30    16    17 1   
    31    17    18 1   
    32    17    35 1   
    33    17    36 1   
    34    18    19 1   
    35    18    22 1   
    36    19    20 2   
    37    19    37 1   
    38    20    21 1   
    39    20    38 1   
    40    21    22 2   
    41    22    39 1   
@<TRIPOS>SUBSTRUCTURE
     1 NEE         1 TEMP              0 ****  ****    0 ROOT
