@<TRIPOS>MOLECULE
NEE
   39    41     1     0     0
SMALL
No Charge or Current Charge


@<TRIPOS>ATOM
      1 CAA          3.3420     0.8240    -2.2850 c3         1 NEE      -0.048800
      2 CAP          3.0320     0.1280    -0.9640 ca         1 NEE      -0.031300
      3 CAJ          1.7060     0.0940    -0.4930 ca         1 NEE      -0.154500
      4 CAU          4.0550    -0.4870    -0.2040 ca         1 NEE       0.089000
      5 Cl1          5.7270    -0.4510    -0.7860 cl         1 NEE      -0.210000
      6 CAQ          3.7480    -1.1340     1.0150 ca         1 NEE      -0.031300
      7 CAB          4.8350    -1.8090     1.8450 c3         1 NEE      -0.048800
      8 CAK          2.4150    -1.1560     1.4690 ca         1 NEE      -0.154500
      9 CAT          1.4000    -0.5370     0.7260 ca         1 NEE       0.137100
     10 OAO          0.1070    -0.5890     1.1950 os         1 NEE      -0.250200
     11 CAS         -0.7750     0.4610     1.0690 ca         1 NEE       0.109100
     12 CAL         -2.1240     0.1840     0.7910 ca         1 NEE      -0.096000
     13 CAG         -0.3520     1.7920     1.2470 ca         1 NEE      -0.127000
     14 CAD         -1.2770     2.8420     1.1270 ca         1 NEE      -0.096000
     15 CAF         -2.6240     2.5640     0.8360 ca         1 NEE      -0.105000
     16 CAR         -3.0580     1.2350     0.6640 ca         1 NEE      -0.103300
     17 CAM         -4.5250     0.9460     0.3550 c3         1 NEE       0.121900
     18 NAV         -4.7240    -0.0530    -0.7070 na         1 NEE      -0.171500
     19 CAH         -5.0250    -1.3880    -0.5380 cc         1 NEE      -0.226000
     20 CAE         -5.1090    -1.9080    -1.8030 cd         1 NEE       0.228900
     21 NAN         -4.8690    -0.9310    -2.7480 nd         1 NEE      -0.669000
     22 CAI         -4.6380     0.1810    -2.0630 cc         1 NEE       0.385400
     23 H1           4.0530     1.6460    -2.1410 hc         1 NEE       0.050867
     24 H2           3.7780     0.1230    -3.0070 hc         1 NEE       0.050867
     25 H3           2.4410     1.2480    -2.7450 hc         1 NEE       0.050867
     26 H4           0.9110     0.5540    -1.0750 ha         1 NEE       0.130500
     27 H5           5.6020    -1.0870     2.1520 hc         1 NEE       0.050867
     28 H6           4.4300    -2.2620     2.7580 hc         1 NEE       0.050867
     29 H7           5.3290    -2.6050     1.2760 hc         1 NEE       0.050867
     30 H8           2.1610    -1.6510     2.4030 ha         1 NEE       0.130500
     31 H9          -2.4380    -0.8490     0.6730 ha         1 NEE       0.137000
     32 H10          0.6870     2.0120     1.4830 ha         1 NEE       0.132000
     33 H11         -0.9520     3.8710     1.2630 ha         1 NEE       0.121000
     34 H12         -3.3310     3.3870     0.7470 ha         1 NEE       0.117000
     35 H13         -5.0170     0.5880     1.2690 h1         1 NEE       0.066200
     36 H14         -5.0300     1.8730     0.0550 h1         1 NEE       0.066200
     37 H15         -5.1520    -1.8570     0.4300 h4         1 NEE       0.157000
     38 H16         -5.3290    -2.9310    -2.0860 h4         1 NEE       0.037100
     39 H17         -4.4080     1.1580    -2.4730 h5         1 NEE       0.051100
@<TRIPOS>BOND
     1     1     2 1   
     2     1    23 1   
     3     1    24 1   
     4     1    25 1   
     5     2     3 ar  
     6     2     4 ar  
     7     3     9 ar  
     8     3    26 1   
     9     4     5 1   
    10     4     6 ar  
    11     6     7 1   
    12     6     8 ar  
    13     7    27 1   
    14     7    28 1   
    15     7    29 1   
    16     8     9 ar  
    17     8    30 1   
    18     9    10 1   
    19    10    11 1   
    20    11    12 ar  
    21    11    13 ar  
    22    12    16 ar  
    23    12    31 1   
    24    13    14 ar  
    25    13    32 1   
    26    14    15 ar  
    27    14    33 1   
    28    15    16 ar  
    29    15    34 1   
    30    16    17 1   
    31    17    18 1   
    32    17    35 1   
    33    17    36 1   
    34    18    19 1   
    35    18    22 1   
    36    19    20 2   
    37    19    37 1   
    38    20    21 1   
    39    20    38 1   
    40    21    22 2   
    41    22    39 1   
@<TRIPOS>SUBSTRUCTURE
     1 NEE         1 TEMP              0 ****  ****    0 ROOT
