@<TRIPOS>MOLECULE
NEF
   54    56     1     0     0
SMALL
bcc


@<TRIPOS>ATOM
      1 C2          -0.0060    -2.2650     1.4930 c6         1 NEF       0.035700
      2 C3           3.1790    -1.5110     0.8940 c3         1 NEF      -0.001300
      3 C4          -0.5380    -1.8800     0.1090 c6         1 NEF      -0.066500
      4 C6          -1.6750    -0.9300     0.2940 c2         1 NEF      -0.020200
      5 C7           5.6160     0.7870    -0.8410 c3         1 NEF      -0.087100
      6 C8           6.0690     2.1620    -0.4910 cc         1 NEF      -0.039400
      7 C11          6.1800     4.5790     0.0510 cc         1 NEF      -0.125100
      8 C13          2.3920    -2.6160     0.1760 c6         1 NEF       0.309600
      9 C14         -4.0630    -0.3370     0.3280 ca         1 NEF       0.111200
     10 C15          0.5680    -1.2440    -0.7630 c6         1 NEF       0.030500
     11 C16         -0.0310    -0.8710    -2.1380 c          1 NEF       0.934600
     12 C17         -3.9780     0.6000     1.3660 ca         1 NEF      -0.162000
     13 S19          1.3220    -3.4970     1.3910 ss         1 NEF      -0.464200
     14 C1           4.0410    -2.1510     1.9760 c          1 NEF       0.594900
     15 O2           5.0170    -2.8100     1.7270 o          1 NEF      -0.520100
     16 N4           3.9840    -0.8230    -0.0790 ns         1 NEF      -0.547900
     17 C5           4.8750     0.1050     0.2970 c          1 NEF       0.665100
     18 O6           5.0990     0.3500     1.4720 o          1 NEF      -0.618100
     19 C9           7.3300     2.5860    -0.2020 cd         1 NEF      -0.148000
     20 C10          7.3960     3.9730     0.1090 cd         1 NEF      -0.154000
     21 S12          4.9490     3.4670    -0.3860 ss         1 NEF      -0.065800
     22 N14          1.7150    -2.1090    -0.9680 n7         1 NEF      -0.808200
     23 O17         -0.0650    -1.7880    -2.9820 o          1 NEF      -0.811300
     24 O18         -0.4490     0.2920    -2.2660 o          1 NEF      -0.811300
     25 C12         -2.9510    -1.2530     0.0790 ce         1 NEF      -0.187200
     26 C18         -5.0080     1.4640     1.6680 ca         1 NEF      -0.030000
     27 C19         -6.1890     1.3820     0.9430 ca         1 NEF      -0.214200
     28 C20         -6.3430     0.4580    -0.0710 ca         1 NEF      -0.008000
     29 C21         -5.2760    -0.3680    -0.3720 ca         1 NEF      -0.191200
     30 N22         -5.4670    -1.2700    -1.5020 no         1 NEF       0.307200
     31 N23         -7.2930     2.2720     1.2570 no         1 NEF       0.323200
     32 O24         -6.5650    -1.7490    -1.6540 o          1 NEF      -0.186500
     33 O25         -4.5280    -1.4590    -2.2350 o          1 NEF      -0.186500
     34 O26         -8.3150     2.1520     0.6240 o          1 NEF      -0.215000
     35 O27         -7.1310     3.0800     2.1400 o          1 NEF      -0.215000
     36 H1           0.3350    -1.3810     2.0380 h1         1 NEF       0.055700
     37 H2          -0.7930    -2.7290     2.0890 h1         1 NEF       0.055700
     38 H3           2.4920    -0.8140     1.3880 h1         1 NEF       0.065700
     39 H4          -0.8960    -2.7880    -0.3880 hc         1 NEF       0.085700
     40 H5          -1.4130     0.0680     0.6360 ha         1 NEF       0.127000
     41 H7           5.0070     0.7870    -1.7470 hc         1 NEF       0.073700
     42 H8           6.4950     0.1760    -1.0660 hc         1 NEF       0.073700
     43 H9           5.9410     5.6140     0.2340 h4         1 NEF       0.161000
     44 H10          3.1020    -3.3730    -0.1640 h2         1 NEF       0.090700
     45 H11          0.9000    -0.3270    -0.2650 h1         1 NEF       0.050700
     46 H12         -3.0820     0.6300     1.9700 ha         1 NEF       0.155000
     47 H13          3.6890    -1.9980     3.0070 h4         1 NEF       0.001200
     48 H14          3.7050    -0.9200    -1.0460 hn         1 NEF       0.353500
     49 H15          8.1850     1.9240    -0.2100 ha         1 NEF       0.147000
     50 H16          8.3090     4.4920     0.3620 ha         1 NEF       0.142000
     51 H17          1.4770    -2.8450    -1.6210 hn         1 NEF       0.418800
     52 H20         -3.1830    -2.2430    -0.2950 ha         1 NEF       0.154000
     53 H22         -4.8910     2.1740     2.4740 ha         1 NEF       0.168000
     54 H23         -7.2630     0.3990    -0.6360 ha         1 NEF       0.192000
@<TRIPOS>BOND
     1     1     3 1   
     2     1    13 1   
     3     1    36 1   
     4     1    37 1   
     5     2     8 1   
     6     2    14 1   
     7     2    16 1   
     8     2    38 1   
     9     3     4 1   
    10     3    10 1   
    11     3    39 1   
    12     4    25 2   
    13     4    40 1   
    14     5     6 1   
    15     5    17 1   
    16     5    41 1   
    17     5    42 1   
    18     6    19 2   
    19     6    21 1   
    20     7    20 2   
    21     7    21 1   
    22     7    43 1   
    23     8    13 1   
    24     8    22 1   
    25     8    44 1   
    26     9    12 ar  
    27     9    25 1   
    28     9    29 ar  
    29    10    11 1   
    30    10    22 1   
    31    10    45 1   
    32    11    23 1   
    33    11    24 1   
    34    12    26 ar  
    35    12    46 1   
    36    14    15 2   
    37    14    47 1   
    38    16    17 1   
    39    16    48 1   
    40    17    18 2   
    41    19    20 1   
    42    19    49 1   
    43    20    50 1   
    44    22    51 1   
    45    25    52 1   
    46    26    27 ar  
    47    26    53 1   
    48    27    28 ar  
    49    27    31 1   
    50    28    29 ar  
    51    28    54 1   
    52    29    30 1   
    53    30    32 1   
    54    30    33 1   
    55    31    34 1   
    56    31    35 1   
@<TRIPOS>SUBSTRUCTURE
     1 NEF         1 TEMP              0 ****  ****    0 ROOT
