@<TRIPOS>MOLECULE
NEF
   54    56     1     0     0
SMALL
No Charge or Current Charge


@<TRIPOS>ATOM
      1 C2           0.0560    -2.6640     1.2200 c6         1 NEF       0.083600
      2 C3           3.3630    -2.1970     1.0270 c3         1 NEF      -0.001300
      3 C4          -0.3000    -1.9140    -0.0810 c6         1 NEF      -0.066500
      4 C6          -1.3280    -0.8330     0.2280 c2         1 NEF      -0.070200
      5 C7           5.8470     0.6020    -0.0290 c3         1 NEF      -0.087100
      6 C8           5.2650     1.9680    -0.3140 cc         1 NEF      -0.184300
      7 C11          3.7740     3.9250    -0.8460 cc         1 NEF      -0.252000
      8 C13          2.5540    -3.1110     0.0570 c6         1 NEF       0.357500
      9 C14         -3.7000     0.0140     0.3600 ca         1 NEF       0.111200
     10 C15          0.9560    -1.3120    -0.7850 c6         1 NEF       0.030500
     11 C16          0.5020    -0.4840    -2.0600 c          1 NEF       0.724000
     12 C17         -3.5220     0.8650     1.4670 ca         1 NEF      -0.144000
     13 S19          1.2440    -4.0470     0.9380 ss         1 NEF      -0.560000
     14 C1           4.0950    -3.0610     2.0760 c          1 NEF       0.594900
     15 O2           5.2670    -3.4200     1.9820 o          1 NEF      -0.520100
     16 N4           4.2980    -1.2830     0.3180 ns         1 NEF      -0.480900
     17 C5           4.9950    -0.2590     0.9160 c          1 NEF       0.598100
     18 O6           4.9320    -0.0520     2.1210 o          1 NEF      -0.618100
     19 C9           5.9270     3.1690    -0.3500 cd         1 NEF      -0.130000
     20 C10          5.0860     4.2740    -0.6500 cd         1 NEF      -0.136000
     21 S12          3.5490     2.1880    -0.6630 ss         1 NEF       0.224000
     22 N14          2.0080    -2.3620    -1.0880 n7         1 NEF      -0.863400
     23 O17          0.4470    -1.0870    -3.1270 o          1 NEF      -0.706000
     24 O18          0.6740     0.7270    -2.0210 o          1 NEF      -0.706000
     25 C12         -2.6590    -1.0140     0.0670 ce         1 NEF      -0.237200
     26 C18         -4.4910     1.8200     1.8130 ca         1 NEF      -0.012000
     27 C19         -5.6740     1.9380     1.0520 ca         1 NEF      -0.214200
     28 C20         -5.8620     1.0880    -0.0610 ca         1 NEF       0.010000
     29 C21         -4.8810     0.1330    -0.4130 ca         1 NEF      -0.191200
     30 N22         -5.1200    -0.7180    -1.6120 no         1 NEF       0.687200
     31 N23         -6.7130     2.9520     1.4180 no         1 NEF       0.703200
     32 O24         -6.2780    -1.1050    -1.8180 o          1 NEF      -0.376500
     33 O25         -4.1970    -0.8550    -2.4240 o          1 NEF      -0.376500
     34 O26         -7.7350     3.0200     0.7220 o          1 NEF      -0.405000
     35 O27         -6.5040     3.6770     2.3990 o          1 NEF      -0.405000
     36 H1           0.4910    -1.9680     1.9500 h1         1 NEF       0.055700
     37 H2          -0.8560    -3.0870     1.6660 h1         1 NEF       0.055700
     38 H3           2.6540    -1.5730     1.5810 h1         1 NEF       0.065700
     39 H4          -0.7550    -2.6370    -0.7720 hc         1 NEF       0.085700
     40 H5          -0.9320     0.1180     0.5900 ha         1 NEF       0.177000
     41 H7           5.9700     0.0780    -0.9840 hc         1 NEF       0.073700
     42 H8           6.8320     0.7290     0.4340 hc         1 NEF       0.073700
     43 H9           2.9250     4.5520    -1.0840 h4         1 NEF       0.143000
     44 H10          3.2550    -3.8640    -0.3430 h2         1 NEF       0.090700
     45 H11          1.4010    -0.5720    -0.1030 h1         1 NEF       0.050700
     46 H12         -2.6330     0.7760     2.0850 ha         1 NEF       0.137000
     47 H13          3.4840    -3.3460     2.9610 h4         1 NEF       0.001200
     48 H14          4.3490    -1.3500    -0.6940 hn         1 NEF       0.353500
     49 H15          6.9930     3.2680    -0.1670 ha         1 NEF       0.129000
     50 H16          5.4460     5.2960    -0.7170 ha         1 NEF       0.124000
     51 H17          1.6010    -3.0370    -1.7470 hn         1 NEF       0.474000
     52 H20         -3.0370    -1.9670    -0.3060 ha         1 NEF       0.204000
     53 H22         -4.3170     2.4560     2.6790 ha         1 NEF       0.150000
     54 H23         -6.7660     1.1730    -0.6640 ha         1 NEF       0.174000
@<TRIPOS>BOND
     1     1     3 1   
     2     1    13 1   
     3     1    36 1   
     4     1    37 1   
     5     2     8 1   
     6     2    14 1   
     7     2    16 1   
     8     2    38 1   
     9     3     4 1   
    10     3    10 1   
    11     3    39 1   
    12     4    25 2   
    13     4    40 1   
    14     5     6 1   
    15     5    17 1   
    16     5    41 1   
    17     5    42 1   
    18     6    19 2   
    19     6    21 1   
    20     7    20 2   
    21     7    21 1   
    22     7    43 1   
    23     8    13 1   
    24     8    22 1   
    25     8    44 1   
    26     9    12 ar  
    27     9    25 1   
    28     9    29 ar  
    29    10    11 1   
    30    10    22 1   
    31    10    45 1   
    32    11    23 1   
    33    11    24 1   
    34    12    26 ar  
    35    12    46 1   
    36    14    15 2   
    37    14    47 1   
    38    16    17 1   
    39    16    48 1   
    40    17    18 2   
    41    19    20 1   
    42    19    49 1   
    43    20    50 1   
    44    22    51 1   
    45    25    52 1   
    46    26    27 ar  
    47    26    53 1   
    48    27    28 ar  
    49    27    31 1   
    50    28    29 ar  
    51    28    54 1   
    52    29    30 1   
    53    30    32 1   
    54    30    33 1   
    55    31    34 1   
    56    31    35 1   
@<TRIPOS>SUBSTRUCTURE
     1 NEF         1 TEMP              0 ****  ****    0 ROOT
