@<TRIPOS>MOLECULE
NEG
   36    35     1     0     0
SMALL
abcg2


@<TRIPOS>ATOM
      1 O1          26.1810   150.5580    69.0940 o          1 NEG      -0.738000
      2 C8          27.0180   149.6170    69.0130 c          1 NEG       0.692000
      3 O2          27.5240   148.9870    69.9700 o          1 NEG      -0.738000
      4 C7          27.4450   149.1400    67.6000 c3         1 NEG      -0.001200
      5 N3          27.1930   150.0360    66.4690 n3         1 NEG      -0.453600
      6 C9          28.0020   151.2540    66.4960 c3         1 NEG       0.146100
      7 N2          25.8290   150.3430    66.3770 ns         1 NEG      -0.378300
      8 C6          25.0670   149.9780    65.3260 c          1 NEG       0.604100
      9 O4          25.5040   149.4560    64.2990 o          1 NEG      -0.637100
     10 C5          23.5880   150.2250    65.5430 c3         1 NEG      -0.207400
     11 C4          22.9400   149.0780    66.3600 c3         1 NEG       0.170500
     12 N4          23.0720   147.7600    65.7330 n8         1 NEG      -0.990200
     13 C3          21.4720   149.4270    66.6230 c3         1 NEG      -0.101400
     14 C2          20.6930   148.5860    67.6410 c3         1 NEG       0.187300
     15 O3          20.2740   147.3130    67.1290 oh         1 NEG      -0.635000
     16 C1          21.4670   148.3470    68.9280 c3         1 NEG       0.147800
     17 N1          20.5990   147.8370    69.9970 n8         1 NEG      -0.993200
     18 H71         28.5130   148.9200    67.6160 h1         1 NEG       0.050200
     19 H72         26.9240   148.1980    67.4070 h1         1 NEG       0.050200
     20 H91         27.7920   151.8880    67.3660 h1         1 NEG       0.031033
     21 H92         29.0540   150.9680    66.5150 h1         1 NEG       0.031033
     22 H93         27.8130   151.8250    65.5870 h1         1 NEG       0.031033
     23 HN2         25.4150   150.6830    67.2430 hn         1 NEG       0.355500
     24 H51         23.4410   151.1670    66.0740 hc         1 NEG       0.055200
     25 H52         23.1070   150.2970    64.5660 hc         1 NEG       0.055200
     26 H4          23.4660   149.0340    67.3170 h1         1 NEG       0.086700
     27 HN41        22.5250   147.7350    64.8770 hn         1 NEG       0.399000
     28 HN42        24.0360   147.6000    65.4570 hn         1 NEG       0.399000
     29 H31         21.4370   150.4610    66.9760 hc         1 NEG       0.034200
     30 H32         20.9280   149.4120    65.6710 hc         1 NEG       0.034200
     31 H2          19.7940   149.1650    67.8980 h1         1 NEG       0.007700
     32 HO3         19.8200   147.4650    66.2910 ho         1 NEG       0.421000
     33 H11         22.2490   147.6080    68.7380 h1         1 NEG       0.056700
     34 H12         21.9660   149.2860    69.1990 h1         1 NEG       0.056700
     35 HN11        21.1560   147.6510    70.8250 hn         1 NEG       0.384500
     36 HN12        19.9350   148.5570    70.2630 hn         1 NEG       0.384500
@<TRIPOS>BOND
     1     1     2 1   
     2     2     3 1   
     3     2     4 1   
     4     4     5 1   
     5     4    18 1   
     6     4    19 1   
     7     5     6 1   
     8     5     7 1   
     9     6    20 1   
    10     6    21 1   
    11     6    22 1   
    12     7     8 1   
    13     7    23 1   
    14     8     9 2   
    15     8    10 1   
    16    10    11 1   
    17    10    24 1   
    18    10    25 1   
    19    11    12 1   
    20    11    13 1   
    21    11    26 1   
    22    12    27 1   
    23    12    28 1   
    24    13    14 1   
    25    13    29 1   
    26    13    30 1   
    27    14    15 1   
    28    14    16 1   
    29    14    31 1   
    30    15    32 1   
    31    16    17 1   
    32    16    33 1   
    33    16    34 1   
    34    17    35 1   
    35    17    36 1   
@<TRIPOS>SUBSTRUCTURE
     1 NEG         1 TEMP              0 ****  ****    0 ROOT
