@<TRIPOS>MOLECULE
NEG
   36    35     1     0     0
SMALL
No Charge or Current Charge


@<TRIPOS>ATOM
      1 O1          26.6740   150.7410    69.5660 o          1 NEG      -0.738000
      2 C8          27.7570   150.3890    69.1150 c          1 NEG       0.692000
      3 O2          28.8250   150.8170    69.5320 o          1 NEG      -0.738000
      4 C7          27.7780   149.3560    67.9440 c3         1 NEG      -0.001200
      5 N3          27.3610   149.8300    66.5900 n3         1 NEG      -0.453600
      6 C9          28.1980   150.9170    66.0340 c3         1 NEG       0.146100
      7 N2          25.9700   150.1590    66.5550 ns         1 NEG      -0.378300
      8 C6          25.0770   149.6430    65.6230 c          1 NEG       0.604100
      9 O4          25.4130   148.8730    64.7300 o          1 NEG      -0.637100
     10 C5          23.6350   150.1460    65.7710 c3         1 NEG      -0.207400
     11 C4          22.7060   149.0580    66.3470 c3         1 NEG       0.170500
     12 N4          22.4360   148.0490    65.3070 n8         1 NEG      -0.990200
     13 C3          21.3720   149.6460    66.8860 c3         1 NEG      -0.101400
     14 C2          20.4360   148.6430    67.6120 c3         1 NEG       0.187300
     15 O3          20.1410   147.5750    66.7080 oh         1 NEG      -0.635000
     16 C1          21.0420   148.0950    68.9500 c3         1 NEG       0.147800
     17 N1          20.1120   147.2330    69.7380 n8         1 NEG      -0.993200
     18 H71         28.8000   148.9600    67.8860 h1         1 NEG       0.050200
     19 H72         27.1410   148.5160    68.2500 h1         1 NEG       0.050200
     20 H91         28.1010   151.8320    66.6330 h1         1 NEG       0.031033
     21 H92         29.2550   150.6210    66.0220 h1         1 NEG       0.031033
     22 H93         27.8970   151.1460    65.0030 h1         1 NEG       0.031033
     23 HN2         25.5920   150.8080    67.2430 hn         1 NEG       0.355500
     24 H51         23.6260   151.0020    66.4560 hc         1 NEG       0.055200
     25 H52         23.2600   150.4670    64.7920 hc         1 NEG       0.055200
     26 H4          23.2290   148.5710    67.1850 h1         1 NEG       0.086700
     27 HN41        22.0960   148.5320    64.4660 hn         1 NEG       0.399000
     28 HN42        23.3390   147.6710    64.9890 hn         1 NEG       0.399000
     29 H31         21.6000   150.4610    67.5840 hc         1 NEG       0.034200
     30 H32         20.8220   150.1070    66.0560 hc         1 NEG       0.034200
     31 H2          19.5090   149.1770    67.8600 h1         1 NEG       0.007700
     32 HO3         20.9410   147.5530    66.1160 ho         1 NEG       0.421000
     33 H11         21.9530   147.5200    68.7330 h1         1 NEG       0.056700
     34 H12         21.3310   148.9510    69.5770 h1         1 NEG       0.056700
     35 HN11        20.5390   147.0190    70.6470 hn         1 NEG       0.384500
     36 HN12        19.2750   147.7760    69.9800 hn         1 NEG       0.384500
@<TRIPOS>BOND
     1     1     2 1   
     2     2     3 1   
     3     2     4 1   
     4     4     5 1   
     5     4    18 1   
     6     4    19 1   
     7     5     6 1   
     8     5     7 1   
     9     6    20 1   
    10     6    21 1   
    11     6    22 1   
    12     7     8 1   
    13     7    23 1   
    14     8     9 2   
    15     8    10 1   
    16    10    11 1   
    17    10    24 1   
    18    10    25 1   
    19    11    12 1   
    20    11    13 1   
    21    11    26 1   
    22    12    27 1   
    23    12    28 1   
    24    13    14 1   
    25    13    29 1   
    26    13    30 1   
    27    14    15 1   
    28    14    16 1   
    29    14    31 1   
    30    15    32 1   
    31    16    17 1   
    32    16    33 1   
    33    16    34 1   
    34    17    35 1   
    35    17    36 1   
@<TRIPOS>SUBSTRUCTURE
     1 NEG         1 TEMP              0 ****  ****    0 ROOT
