@<TRIPOS>MOLECULE
NEH
   10     9     1     0     0
SMALL
No Charge or Current Charge


@<TRIPOS>ATOM
      1 N            2.4360    -1.3150     0.7380 n8         1 NEH      -0.989200
      2 CA           1.3050    -0.9530     1.6110 c3         1 NEH       0.139800
      3 CB           0.4140     0.1040     0.9400 c3         1 NEH      -0.133100
      4 H            2.9570    -0.4620     0.4980 hn         1 NEH       0.388000
      5 HA2          0.7120    -1.8540     1.8270 h1         1 NEH       0.051200
      6 HA3          1.6940    -0.5590     2.5620 h1         1 NEH       0.051200
      7 HB1          0.9800     1.0200     0.7320 hc         1 NEH       0.035033
      8 HB2         -0.0000    -0.2740    -0.0030 hc         1 NEH       0.035033
      9 HB3         -0.4230     0.3640     1.5990 hc         1 NEH       0.035033
     10 HN1          2.0680    -1.6330    -0.1670 hn         1 NEH       0.388000
@<TRIPOS>BOND
     1     1     2 1   
     2     1     4 1   
     3     1    10 1   
     4     2     3 1   
     5     2     5 1   
     6     2     6 1   
     7     3     7 1   
     8     3     8 1   
     9     3     9 1   
@<TRIPOS>SUBSTRUCTURE
     1 NEH         1 TEMP              0 ****  ****    0 ROOT
