@<TRIPOS>MOLECULE
NEH
   10     9     1     0     0
SMALL
bcc


@<TRIPOS>ATOM
      1 N            2.4500    -1.3230     0.7470 n8         1 NEH      -0.878800
      2 CA           1.3110    -0.9320     1.5670 c3         1 NEH       0.139800
      3 CB           0.3920     0.1180     0.9530 c3         1 NEH      -0.133100
      4 H            2.9810    -0.4970     0.4990 hn         1 NEH       0.332800
      5 HA2          0.7350    -1.8310     1.7970 h1         1 NEH       0.051200
      6 HA3          1.6910    -0.5650     2.5230 h1         1 NEH       0.051200
      7 HB1          0.9360     1.0430     0.7530 hc         1 NEH       0.035033
      8 HB2         -0.0290    -0.2330     0.0090 hc         1 NEH       0.035033
      9 HB3         -0.4390     0.3590     1.6180 hc         1 NEH       0.035033
     10 HN1          2.1160    -1.7020    -0.1310 hn         1 NEH       0.332800
@<TRIPOS>BOND
     1     1     2 1   
     2     1     4 1   
     3     1    10 1   
     4     2     3 1   
     5     2     5 1   
     6     2     6 1   
     7     3     7 1   
     8     3     8 1   
     9     3     9 1   
@<TRIPOS>SUBSTRUCTURE
     1 NEH         1 TEMP              0 ****  ****    0 ROOT
