@<TRIPOS>MOLECULE
NEI
   38    40     1     0     0
SMALL
abcg2


@<TRIPOS>ATOM
      1 C52          8.1820     0.2100     0.5350 c3         1 NEI      -0.113100
      2 C51          7.0630    -0.5180    -0.1830 c3         1 NEI       0.106000
      3 N5           5.8820     0.3220    -0.2600 ns         1 NEI      -0.505900
      4 C5           4.7180    -0.1060    -0.7580 c          1 NEI       0.594100
      5 O5           4.5530    -1.2210    -1.2280 o          1 NEI      -0.590100
      6 C4           3.5950     0.9160    -0.6480 c5         1 NEI       0.074300
      7 O4           2.4980     0.5320    -1.4470 os         1 NEI      -0.408000
      8 C3           3.0510     1.0270     0.7820 c5         1 NEI       0.093300
      9 O3           3.8000     1.9560     1.5090 oh         1 NEI      -0.716000
     10 C2           1.6060     1.4640     0.5150 c5         1 NEI       0.106300
     11 O2           1.5450     2.8220     0.1850 oh         1 NEI      -0.699000
     12 C1           1.2940     0.6760    -0.7550 c5         1 NEI       0.323300
     13 N9           0.7530    -0.6450    -0.4490 na         1 NEI      -0.312300
     14 C8           1.3460    -1.8720    -0.5920 cc         1 NEI       0.424700
     15 N7           0.5680    -2.8600    -0.2530 nd         1 NEI      -0.558100
     16 C7          -0.6000    -2.2600     0.1300 ca         1 NEI      -0.089600
     17 C9          -0.5050    -0.8840     0.0110 ca         1 NEI       0.109500
     18 N3          -1.4600     0.0070     0.2940 nb         1 NEI      -0.194000
     19 C10         -2.5440    -0.5950     0.7160 ca         1 NEI       0.302800
     20 I2          -4.1530     0.6980     1.2070 i          1 NEI      -0.172800
     21 N1          -2.7950    -1.8750     0.8860 nb         1 NEI      -0.280000
     22 C6          -1.8300    -2.7620     0.5980 ca         1 NEI       0.452900
     23 N6          -2.0690    -4.0580     0.7660 nv         1 NEI      -1.057900
     24 H521         7.8960     0.4740     1.5540 hc         1 NEI       0.044033
     25 H522         9.0640    -0.4270     0.5910 hc         1 NEI       0.044033
     26 H523         8.4650     1.1230     0.0100 hc         1 NEI       0.044033
     27 H511         7.3840    -0.7970    -1.1900 h1         1 NEI       0.053200
     28 H512         6.8200    -1.4440     0.3420 h1         1 NEI       0.053200
     29 HN5          5.9380     1.2580     0.1120 hn         1 NEI       0.325500
     30 H4           3.9650     1.8970    -0.9700 h1         1 NEI       0.090700
     31 H3           3.0480     0.0440     1.2680 h1         1 NEI       0.068700
     32 HO3          3.7480     1.7390     2.4450 ho         1 NEI       0.524000
     33 H2           0.9300     1.2080     1.3390 h1         1 NEI       0.084700
     34 HO2          2.0970     3.3060     0.8110 ho         1 NEI       0.525000
     35 H1           0.5600     1.1920    -1.3810 h2         1 NEI       0.129700
     36 H8           2.3570    -1.9740    -0.9550 h5         1 NEI       0.103800
     37 HN61        -1.3750    -4.7470     0.5350 hn         1 NEI       0.510500
     38 HN62        -2.9680    -4.3740     1.0880 hn         1 NEI       0.510500
@<TRIPOS>BOND
     1     1     2 1   
     2     1    24 1   
     3     1    25 1   
     4     1    26 1   
     5     2     3 1   
     6     2    27 1   
     7     2    28 1   
     8     3     4 1   
     9     3    29 1   
    10     4     5 2   
    11     4     6 1   
    12     6     7 1   
    13     6     8 1   
    14     6    30 1   
    15     7    12 1   
    16     8     9 1   
    17     8    10 1   
    18     8    31 1   
    19     9    32 1   
    20    10    11 1   
    21    10    12 1   
    22    10    33 1   
    23    11    34 1   
    24    12    13 1   
    25    12    35 1   
    26    13    14 1   
    27    13    17 1   
    28    14    15 2   
    29    14    36 1   
    30    15    16 1   
    31    16    17 ar  
    32    16    22 ar  
    33    17    18 ar  
    34    18    19 ar  
    35    19    20 1   
    36    19    21 ar  
    37    21    22 ar  
    38    22    23 1   
    39    23    37 1   
    40    23    38 1   
@<TRIPOS>SUBSTRUCTURE
     1 NEI         1 TEMP              0 ****  ****    0 ROOT
