@<TRIPOS>MOLECULE
NEI
   38    40     1     0     0
SMALL
No Charge or Current Charge


@<TRIPOS>ATOM
      1 C52          6.0640    -1.8170    -0.4650 c3         1 NEI      -0.113100
      2 C51          5.9650    -0.6310    -1.4390 c3         1 NEI       0.106000
      3 N5           5.0650     0.4120    -0.9430 ns         1 NEI      -0.505900
      4 C5           3.6860     0.3410    -0.9760 c          1 NEI       0.594100
      5 O5           3.0790    -0.5940    -1.4850 o          1 NEI      -0.590100
      6 C4           3.0930     1.6300    -0.3230 c5         1 NEI       0.074300
      7 O4           1.6400     1.6930    -0.4420 os         1 NEI      -0.408000
      8 C3           3.4140     1.6450     1.2140 c5         1 NEI       0.093300
      9 O3           4.4760     2.5570     1.5470 oh         1 NEI      -0.716000
     10 C2           2.0630     2.1120     1.8390 c5         1 NEI       0.106300
     11 O2           2.0010     3.5470     1.8170 oh         1 NEI      -0.699000
     12 C1           1.0510     1.4340     0.8530 c5         1 NEI       0.323300
     13 N9           0.7980    -0.0110     0.9880 na         1 NEI      -0.312300
     14 C8           1.2460    -0.8480     2.0210 cc         1 NEI       0.424700
     15 N7           0.8280    -2.1160     1.8440 nd         1 NEI      -0.558100
     16 C7           0.0900    -2.0510     0.6590 ca         1 NEI      -0.089600
     17 C9           0.0600    -0.7840     0.1340 ca         1 NEI       0.109500
     18 N3          -0.6020    -0.4970    -1.0030 nb         1 NEI      -0.194000
     19 C10         -1.2250    -1.5400    -1.6000 ca         1 NEI       0.302800
     20 I2          -2.2840    -1.1140    -3.4290 i          1 NEI      -0.172800
     21 N1          -1.2540    -2.8230    -1.1700 nb         1 NEI      -0.280000
     22 C6          -0.5930    -3.0740    -0.0290 ca         1 NEI       0.452900
     23 N6          -0.6200    -4.3620     0.4120 nv         1 NEI      -1.057900
     24 H521         5.0850    -2.2920    -0.3270 hc         1 NEI       0.044033
     25 H522         6.7580    -2.5710    -0.8540 hc         1 NEI       0.044033
     26 H523         6.4300    -1.4840     0.5140 hc         1 NEI       0.044033
     27 H511         6.9620    -0.1930    -1.5820 h1         1 NEI       0.053200
     28 H512         5.6070    -0.9830    -2.4160 h1         1 NEI       0.053200
     29 HN5          5.4700     1.2300    -0.5000 hn         1 NEI       0.325500
     30 H4           3.5210     2.5010    -0.8370 h1         1 NEI       0.090700
     31 H3           3.6600     0.6280     1.5570 h1         1 NEI       0.068700
     32 HO3          4.9050     2.2360     2.3790 ho         1 NEI       0.524000
     33 H2           1.9370     1.7440     2.8670 h1         1 NEI       0.084700
     34 HO2          2.9450     3.8100     1.6710 ho         1 NEI       0.525000
     35 H1           0.0660     1.9140     0.9240 h2         1 NEI       0.129700
     36 H8           1.8490    -0.4940     2.8490 h5         1 NEI       0.103800
     37 HN61         0.0450    -4.6050     1.1420 hn         1 NEI       0.510500
     38 HN62        -0.8560    -5.0950    -0.2510 hn         1 NEI       0.510500
@<TRIPOS>BOND
     1     1     2 1   
     2     1    24 1   
     3     1    25 1   
     4     1    26 1   
     5     2     3 1   
     6     2    27 1   
     7     2    28 1   
     8     3     4 1   
     9     3    29 1   
    10     4     5 2   
    11     4     6 1   
    12     6     7 1   
    13     6     8 1   
    14     6    30 1   
    15     7    12 1   
    16     8     9 1   
    17     8    10 1   
    18     8    31 1   
    19     9    32 1   
    20    10    11 1   
    21    10    12 1   
    22    10    33 1   
    23    11    34 1   
    24    12    13 1   
    25    12    35 1   
    26    13    14 1   
    27    13    17 1   
    28    14    15 2   
    29    14    36 1   
    30    15    16 1   
    31    16    17 ar  
    32    16    22 ar  
    33    17    18 ar  
    34    18    19 ar  
    35    19    20 1   
    36    19    21 ar  
    37    21    22 ar  
    38    22    23 1   
    39    23    37 1   
    40    23    38 1   
@<TRIPOS>SUBSTRUCTURE
     1 NEI         1 TEMP              0 ****  ****    0 ROOT
