@<TRIPOS>MOLECULE
NEJ
   83    86     1     0     0
SMALL
No Charge or Current Charge


@<TRIPOS>ATOM
      1 C13         71.0780    57.1780    15.0760 c3         1 NEJ       0.157300
      2 C15         70.8370    57.8100    16.4840 c3         1 NEJ       0.099700
      3 C17         72.9090    58.6920    17.6010 c          1 NEJ       0.635100
      4 C20         74.6070    59.9390    18.7170 c5         1 NEJ       0.160300
      5 C21         75.5170    61.1350    18.3260 c5         1 NEJ       0.152600
      6 C24         74.5030    61.8690    20.2670 c5         1 NEJ       0.368300
      7 C26         72.2060    61.7700    20.0000 c5         1 NEJ       0.150600
      8 C28         69.4080    58.3730    16.7200 c3         1 NEJ      -0.041100
      9 C01         66.9390    52.0500    13.1170 ca         1 NEJ      -0.075300
     10 C02         68.0130    51.3420    13.6950 ca         1 NEJ      -0.117000
     11 C03         68.7710    51.9120    14.7320 ca         1 NEJ      -0.018000
     12 C04         68.4650    53.2060    15.2020 ca         1 NEJ      -0.310500
     13 C05         67.3890    53.9160    14.6320 ca         1 NEJ      -0.018000
     14 C06         66.6350    53.3410    13.5950 ca         1 NEJ      -0.117000
     15 C11         71.6130    53.7430    14.9780 c3         1 NEJ       0.203800
     16 C12         70.2870    55.8550    14.8360 c3         1 NEJ       0.211800
     17 C23         74.1510    60.3460    20.1800 c5         1 NEJ      -0.141700
     18 C25         72.5930    60.3300    20.4040 c5         1 NEJ      -0.094400
     19 C29         69.2290    58.9630    18.1180 ca         1 NEJ      -0.084300
     20 C30         69.3170    58.1340    19.2540 ca         1 NEJ      -0.101000
     21 C31         69.1620    58.6750    20.5420 ca         1 NEJ      -0.115500
     22 C32         68.9120    60.0480    20.7030 ca         1 NEJ      -0.115000
     23 C33         68.8160    60.8790    19.5750 ca         1 NEJ      -0.115500
     24 C34         68.9770    60.3390    18.2870 ca         1 NEJ      -0.101000
     25 C35         65.3830    50.1470    12.4250 c3         1 NEJ      -0.084100
     26 C37         73.0050    54.2860    14.5520 c3         1 NEJ      -0.059700
     27 C38         73.7650    53.2920    13.6280 c3         1 NEJ      -0.075400
     28 C39         73.8580    54.7170    15.7720 c3         1 NEJ      -0.089100
     29 C40         66.1080    51.4360    11.9900 c3         1 NEJ       0.209600
     30 N10         70.7190    54.7020    15.6840 n3         1 NEJ      -0.743500
     31 N16         71.8330    58.8520    16.7770 ns         1 NEJ      -0.502900
     32 O08         70.0570    52.8810    17.3370 o          1 NEJ      -0.542000
     33 O09         68.6800    55.0140    17.1720 o          1 NEJ      -0.542000
     34 O14         70.7730    58.1290    14.0340 oh         1 NEJ      -0.673000
     35 O18         73.2330    57.6440    18.1370 o          1 NEJ      -0.539000
     36 O19         73.5050    59.9100    17.7640 os         1 NEJ      -0.459100
     37 O22         74.8840    62.2700    18.9410 os         1 NEJ      -0.467000
     38 O27         73.2700    62.5390    20.5890 os         1 NEJ      -0.446000
     39 O41         66.9470    51.1450    10.8690 oh         1 NEJ      -0.659000
     40 S07         69.4420    53.9400    16.5280 sy         1 NEJ       1.187600
     41 H131        72.1440    56.9330    15.0220 h1         1 NEJ       0.055700
     42 H151        70.9820    57.0000    17.2120 h1         1 NEJ       0.099700
     43 H201        75.1790    59.0010    18.6840 h1         1 NEJ       0.087700
     44 H211        75.5900    61.2810    17.2400 h1         1 NEJ       0.062200
     45 H212        76.5300    61.0190    18.7360 h1         1 NEJ       0.062200
     46 H241        75.2960    62.0880    20.9950 h2         1 NEJ       0.082700
     47 H261        71.2380    62.0870    20.4090 h1         1 NEJ       0.057200
     48 H262        72.2020    61.9150    18.9110 h1         1 NEJ       0.057200
     49 H281        69.1900    59.1340    15.9610 hc         1 NEJ       0.066200
     50 H282        68.6670    57.5820    16.5690 hc         1 NEJ       0.066200
     51 H031        69.5940    51.3450    15.1630 ha         1 NEJ       0.134500
     52 H051        67.1300    54.9120    14.9880 ha         1 NEJ       0.134500
     53 H061        65.8080    53.9020    13.1660 ha         1 NEJ       0.125500
     54 H112        71.1040    53.3610    14.0830 h1         1 NEJ       0.051700
     55 H111        71.8070    52.8720    15.6180 h1         1 NEJ       0.051700
     56 H121        69.2240    56.0840    14.9750 h1         1 NEJ       0.063700
     57 H122        70.3840    55.5890    13.7750 h1         1 NEJ       0.063700
     58 H231        74.6850    59.7650    20.9400 hc         1 NEJ       0.077700
     59 H251        72.3610    60.1700    21.4630 hc         1 NEJ       0.066700
     60 H252        72.0410    59.5620    19.8580 hc         1 NEJ       0.066700
     61 H301        69.5060    57.0690    19.1400 ha         1 NEJ       0.120000
     62 H311        69.2350    58.0290    21.4150 ha         1 NEJ       0.112500
     63 H321        68.7910    60.4660    21.7000 ha         1 NEJ       0.111000
     64 H331        68.6200    61.9420    19.6980 ha         1 NEJ       0.112500
     65 H341        68.9050    60.9940    17.4210 ha         1 NEJ       0.120000
     66 H352        64.7390    50.3470    13.2890 hc         1 NEJ       0.050367
     67 H353        64.7550    49.7670    11.6110 hc         1 NEJ       0.050367
     68 H351        66.0980    49.3640    12.7020 hc         1 NEJ       0.050367
     69 H363        74.6490    51.3020    13.5220 hc         1 NEJ       0.034367
     70 H361        74.7630    52.0370    15.1290 hc         1 NEJ       0.034367
     71 H362        73.2120    51.3780    14.5540 hc         1 NEJ       0.034367
     72 H371        72.8420    55.1760    13.9360 hc         1 NEJ       0.044700
     73 H381        74.6940    53.7660    13.2860 hc         1 NEJ       0.038700
     74 H382        73.1640    53.1180    12.7260 hc         1 NEJ       0.038700
     75 H391        73.3480    55.4940    16.3510 hc         1 NEJ       0.045033
     76 H393        74.0420    53.8720    16.4460 hc         1 NEJ       0.045033
     77 H392        74.8250    55.1190    15.4490 hc         1 NEJ       0.045033
     78 H401        65.3390    52.1610    11.6890 h1         1 NEJ       0.039700
     79 H161        71.6650    59.7970    16.4610 hn         1 NEJ       0.321500
     80 H141        71.4290    58.8560    14.1100 ho         1 NEJ       0.451000
     81 H411        67.4680    51.9590    10.6960 ho         1 NEJ       0.444000
     82 H021        68.2650    50.3470    13.3370 ha         1 NEJ       0.125500
     83 C36         74.1150    51.9210    14.2530 c3         1 NEJ      -0.091100
@<TRIPOS>BOND
     1     1     2 1   
     2     1    16 1   
     3     1    34 1   
     4     1    41 1   
     5     2     8 1   
     6     2    31 1   
     7     2    42 1   
     8     3    31 1   
     9     3    35 2   
    10     3    36 1   
    11     4     5 1   
    12     4    17 1   
    13     4    36 1   
    14     4    43 1   
    15     5    37 1   
    16     5    44 1   
    17     5    45 1   
    18     6    17 1   
    19     6    37 1   
    20     6    38 1   
    21     6    46 1   
    22     7    18 1   
    23     7    38 1   
    24     7    47 1   
    25     7    48 1   
    26     8    19 1   
    27     8    49 1   
    28     8    50 1   
    29     9    10 ar  
    30     9    14 ar  
    31     9    29 1   
    32    10    11 ar  
    33    10    82 1   
    34    11    12 ar  
    35    11    51 1   
    36    12    13 ar  
    37    12    40 1   
    38    13    14 ar  
    39    13    52 1   
    40    14    53 1   
    41    15    26 1   
    42    15    30 1   
    43    15    54 1   
    44    15    55 1   
    45    16    30 1   
    46    16    56 1   
    47    16    57 1   
    48    17    18 1   
    49    17    58 1   
    50    18    59 1   
    51    18    60 1   
    52    19    20 ar  
    53    19    24 ar  
    54    20    21 ar  
    55    20    61 1   
    56    21    22 ar  
    57    21    62 1   
    58    22    23 ar  
    59    22    63 1   
    60    23    24 ar  
    61    23    64 1   
    62    24    65 1   
    63    25    29 1   
    64    25    66 1   
    65    25    67 1   
    66    25    68 1   
    67    26    27 1   
    68    26    28 1   
    69    26    72 1   
    70    27    73 1   
    71    27    74 1   
    72    27    83 1   
    73    28    75 1   
    74    28    76 1   
    75    28    77 1   
    76    29    39 1   
    77    29    78 1   
    78    30    40 1   
    79    31    79 1   
    80    32    40 2   
    81    33    40 2   
    82    34    80 1   
    83    39    81 1   
    84    69    83 1   
    85    70    83 1   
    86    71    83 1   
@<TRIPOS>SUBSTRUCTURE
     1 NEJ         1 TEMP              0 ****  ****    0 ROOT
