@<TRIPOS>MOLECULE
NEJ
   83    86     1     0     0
SMALL
abcg2


@<TRIPOS>ATOM
      1 C13         71.1650    57.3900    14.8770 c3         1 NEJ       0.157300
      2 C15         70.9340    57.8860    16.3130 c3         1 NEJ       0.099700
      3 C17         72.8690    58.6530    17.6370 c          1 NEJ       0.635100
      4 C20         74.5530    59.7530    18.9250 c5         1 NEJ       0.160300
      5 C21         75.6180    60.7840    18.6010 c5         1 NEJ       0.152600
      6 C24         74.3820    61.7720    20.2880 c5         1 NEJ       0.368300
      7 C26         72.1070    61.7350    19.8890 c5         1 NEJ       0.150600
      8 C28         69.5420    58.4840    16.5490 c3         1 NEJ      -0.041100
      9 C01         66.9740    51.9600    13.3180 ca         1 NEJ      -0.075300
     10 C02         68.0680    51.3460    13.9310 ca         1 NEJ      -0.117000
     11 C03         68.8450    52.0360    14.8470 ca         1 NEJ      -0.018000
     12 C04         68.5230    53.3550    15.1620 ca         1 NEJ      -0.310500
     13 C05         67.4300    53.9810    14.5680 ca         1 NEJ      -0.018000
     14 C06         66.6630    53.2770    13.6500 ca         1 NEJ      -0.117000
     15 C11         71.6450    54.0060    14.6100 c3         1 NEJ       0.203800
     16 C12         70.3570    56.1460    14.5070 c3         1 NEJ       0.211800
     17 C23         73.9690    60.2770    20.2530 c5         1 NEJ      -0.141700
     18 C25         72.4410    60.3320    20.3790 c5         1 NEJ      -0.094400
     19 C29         69.3110    58.8730    17.9880 ca         1 NEJ      -0.084300
     20 C30         69.3380    57.9130    19.0030 ca         1 NEJ      -0.101000
     21 C31         69.1200    58.2710    20.3280 ca         1 NEJ      -0.115500
     22 C32         68.8670    59.5990    20.6630 ca         1 NEJ      -0.115000
     23 C33         68.8390    60.5630    19.6620 ca         1 NEJ      -0.115500
     24 C34         69.0660    60.2000    18.3370 ca         1 NEJ      -0.101000
     25 C35         65.1380    50.2680    13.0400 c3         1 NEJ      -0.084100
     26 C37         73.0820    54.5120    14.4850 c3         1 NEJ      -0.059700
     27 C38         73.9020    53.5480    13.6080 c3         1 NEJ      -0.075400
     28 C39         73.7160    54.7530    15.8540 c3         1 NEJ      -0.089100
     29 C40         66.1140    51.1960    12.3320 c3         1 NEJ       0.209600
     30 N10         70.7390    54.9580    15.2870 n3         1 NEJ      -0.743500
     31 N16         71.9540    58.8640    16.6710 ns         1 NEJ      -0.502900
     32 O08         70.2420    53.3430    17.1200 o          1 NEJ      -0.542000
     33 O09         68.8160    55.3590    16.8160 o          1 NEJ      -0.542000
     34 O14         70.8140    58.3680    13.8950 oh         1 NEJ      -0.673000
     35 O18         73.0510    57.6040    18.2340 o          1 NEJ      -0.539000
     36 O19         73.5860    59.7820    17.8570 os         1 NEJ      -0.459100
     37 O22         75.0980    62.0280    19.0770 os         1 NEJ      -0.467000
     38 O27         73.2150    62.5430    20.3410 os         1 NEJ      -0.446000
     39 O41         66.9040    50.3800    11.4590 oh         1 NEJ      -0.659000
     40 S07         69.5810    54.2780    16.2410 sy         1 NEJ       1.187600
     41 H131        72.2290    57.1590    14.7930 h1         1 NEJ       0.055700
     42 H151        71.0840    57.0350    16.9720 h1         1 NEJ       0.099700
     43 H201        74.9480    58.7460    19.0110 h1         1 NEJ       0.087700
     44 H211        75.8130    60.8730    17.5350 h1         1 NEJ       0.062200
     45 H212        76.5480    60.5310    19.1220 h1         1 NEJ       0.062200
     46 H241        75.0070    62.0570    21.1370 h2         1 NEJ       0.082700
     47 H261        71.2020    62.1530    20.3220 h1         1 NEJ       0.057200
     48 H262        72.0350    61.7730    18.7990 h1         1 NEJ       0.057200
     49 H281        69.4190    59.3580    15.9080 hc         1 NEJ       0.066200
     50 H282        68.7960    57.7490    16.2440 hc         1 NEJ       0.066200
     51 H031        69.6890    51.5540    15.3200 ha         1 NEJ       0.134500
     52 H051        67.1820    55.0020    14.8220 ha         1 NEJ       0.134500
     53 H061        65.8140    53.7610    13.1820 ha         1 NEJ       0.125500
     54 H112        71.2420    53.7800    13.6170 h1         1 NEJ       0.051700
     55 H111        71.6430    53.0870    15.1900 h1         1 NEJ       0.051700
     56 H121        69.2970    56.3540    14.6290 h1         1 NEJ       0.063700
     57 H122        70.5270    55.9340    13.4500 h1         1 NEJ       0.063700
     58 H231        74.4240    59.7270    21.0740 hc         1 NEJ       0.077700
     59 H251        72.1580    60.2280    21.4260 hc         1 NEJ       0.066700
     60 H252        71.9230    59.5580    19.8190 hc         1 NEJ       0.066700
     61 H301        69.5230    56.8770    18.7490 ha         1 NEJ       0.120000
     62 H311        69.1470    57.5130    21.1010 ha         1 NEJ       0.112500
     63 H321        68.7000    59.8790    21.6960 ha         1 NEJ       0.111000
     64 H331        68.6500    61.5990    19.9120 ha         1 NEJ       0.112500
     65 H341        69.0500    60.9580    17.5620 ha         1 NEJ       0.120000
     66 H352        64.4840    50.8380    13.7000 hc         1 NEJ       0.050367
     67 H353        64.5250    49.7430    12.3060 hc         1 NEJ       0.050367
     68 H351        65.6820    49.5340    13.6380 hc         1 NEJ       0.050367
     69 H363        74.6760    51.5320    13.4670 hc         1 NEJ       0.034367
     70 H361        74.5460    52.1150    15.1240 hc         1 NEJ       0.034367
     71 H362        73.1000    51.6170    14.2450 hc         1 NEJ       0.034367
     72 H371        73.0620    55.4620    13.9430 hc         1 NEJ       0.044700
     73 H381        74.8930    53.9890    13.4660 hc         1 NEJ       0.038700
     74 H382        73.4390    53.5060    12.6170 hc         1 NEJ       0.038700
     75 H391        73.1650    55.5050    16.4180 hc         1 NEJ       0.045033
     76 H393        73.7310    53.8390    16.4500 hc         1 NEJ       0.045033
     77 H392        74.7450    55.1020    15.7430 hc         1 NEJ       0.045033
     78 H401        65.5490    51.9230    11.7390 h1         1 NEJ       0.039700
     79 H161        71.8480    59.8120    16.3440 hn         1 NEJ       0.321500
     80 H141        71.4510    59.0910    13.9330 ho         1 NEJ       0.451000
     81 H411        67.5170    50.9530    10.9790 ho         1 NEJ       0.444000
     82 H021        68.3160    50.3240    13.6790 ha         1 NEJ       0.125500
     83 C36         74.0610    52.1260    14.1460 c3         1 NEJ      -0.091100
@<TRIPOS>BOND
     1     1     2 1   
     2     1    16 1   
     3     1    34 1   
     4     1    41 1   
     5     2     8 1   
     6     2    31 1   
     7     2    42 1   
     8     3    31 1   
     9     3    35 2   
    10     3    36 1   
    11     4     5 1   
    12     4    17 1   
    13     4    36 1   
    14     4    43 1   
    15     5    37 1   
    16     5    44 1   
    17     5    45 1   
    18     6    17 1   
    19     6    37 1   
    20     6    38 1   
    21     6    46 1   
    22     7    18 1   
    23     7    38 1   
    24     7    47 1   
    25     7    48 1   
    26     8    19 1   
    27     8    49 1   
    28     8    50 1   
    29     9    10 ar  
    30     9    14 ar  
    31     9    29 1   
    32    10    11 ar  
    33    10    82 1   
    34    11    12 ar  
    35    11    51 1   
    36    12    13 ar  
    37    12    40 1   
    38    13    14 ar  
    39    13    52 1   
    40    14    53 1   
    41    15    26 1   
    42    15    30 1   
    43    15    54 1   
    44    15    55 1   
    45    16    30 1   
    46    16    56 1   
    47    16    57 1   
    48    17    18 1   
    49    17    58 1   
    50    18    59 1   
    51    18    60 1   
    52    19    20 ar  
    53    19    24 ar  
    54    20    21 ar  
    55    20    61 1   
    56    21    22 ar  
    57    21    62 1   
    58    22    23 ar  
    59    22    63 1   
    60    23    24 ar  
    61    23    64 1   
    62    24    65 1   
    63    25    29 1   
    64    25    66 1   
    65    25    67 1   
    66    25    68 1   
    67    26    27 1   
    68    26    28 1   
    69    26    72 1   
    70    27    73 1   
    71    27    74 1   
    72    27    83 1   
    73    28    75 1   
    74    28    76 1   
    75    28    77 1   
    76    29    39 1   
    77    29    78 1   
    78    30    40 1   
    79    31    79 1   
    80    32    40 2   
    81    33    40 2   
    82    34    80 1   
    83    39    81 1   
    84    69    83 1   
    85    70    83 1   
    86    71    83 1   
@<TRIPOS>SUBSTRUCTURE
     1 NEJ         1 TEMP              0 ****  ****    0 ROOT
