@<TRIPOS>MOLECULE
NEK
   25    25     1     0     0
SMALL
abcg2


@<TRIPOS>ATOM
      1 C01          0.3440     0.1270     9.3250 ca         1 NEK       0.131100
      2 C02         -0.5720    -0.8220     8.8660 ca         1 NEK      -0.184500
      3 C03         -0.8870    -0.8920     7.5230 ca         1 NEK      -0.053500
      4 C04         -0.3030    -0.0210     6.6000 ca         1 NEK      -0.145900
      5 C05          0.6090     0.9230     7.0740 ca         1 NEK      -0.053500
      6 C06          0.9340     1.0020     8.4170 ca         1 NEK      -0.184500
      7 C08         -0.6090    -0.0570     5.1740 ce         1 NEK       0.372800
      8 C11         -2.4460    -1.7930     2.8460 c3         1 NEK       0.177600
      9 C12         -2.6780    -1.5180     1.3780 c3         1 NEK      -0.223400
     10 C13         -3.6010    -2.5490     0.6930 c          1 NEK       0.724000
     11 N09         -1.4100    -0.9160     4.6910 n2         1 NEK      -0.302700
     12 O07          0.6860     0.2400    10.6200 oh         1 NEK      -0.542100
     13 O10         -1.5790    -0.7780     3.3480 os         1 NEK      -0.327000
     14 O14         -3.9670    -2.2660    -0.4640 o          1 NEK      -0.734500
     15 O15         -3.8870    -3.5740     1.3420 o          1 NEK      -0.734500
     16 H02         -1.0410    -1.5090     9.5620 ha         1 NEK       0.114000
     17 H03         -1.6000    -1.6330     7.1870 ha         1 NEK       0.125000
     18 H05          1.0770     1.6110     6.3800 ha         1 NEK       0.125000
     19 H06          1.6440     1.7410     8.7650 ha         1 NEK       0.114000
     20 H08         -0.1230     0.6880     4.5420 h4         1 NEK      -0.003200
     21 H111        -3.3900    -1.7780     3.3990 h1         1 NEK       0.043200
     22 H112        -1.9900    -2.7760     2.9920 h1         1 NEK       0.043200
     23 H121        -1.7210    -1.5080     0.8450 hc         1 NEK       0.029200
     24 H122        -3.1040    -0.5180     1.2450 hc         1 NEK       0.029200
     25 HO07         0.2180    -0.4120    11.1550 ho         1 NEK       0.461000
@<TRIPOS>BOND
     1     1     2 ar  
     2     1     6 ar  
     3     1    12 1   
     4     2     3 ar  
     5     2    16 1   
     6     3     4 ar  
     7     3    17 1   
     8     4     5 ar  
     9     4     7 1   
    10     5     6 ar  
    11     5    18 1   
    12     6    19 1   
    13     7    11 2   
    14     7    20 1   
    15     8     9 1   
    16     8    13 1   
    17     8    21 1   
    18     8    22 1   
    19     9    10 1   
    20     9    23 1   
    21     9    24 1   
    22    10    14 1   
    23    10    15 1   
    24    11    13 1   
    25    12    25 1   
@<TRIPOS>SUBSTRUCTURE
     1 NEK         1 TEMP              0 ****  ****    0 ROOT
