@<TRIPOS>MOLECULE
NEK
   25    25     1     0     0
SMALL
No Charge or Current Charge


@<TRIPOS>ATOM
      1 C01          0.3170     0.1670     9.3790 ca         1 NEK       0.131100
      2 C02         -0.6350    -0.7520     8.9130 ca         1 NEK      -0.184500
      3 C03         -0.9210    -0.8360     7.5390 ca         1 NEK      -0.053500
      4 C04         -0.2540     0.0030     6.6180 ca         1 NEK      -0.145900
      5 C05          0.7010     0.9240     7.0980 ca         1 NEK      -0.053500
      6 C06          0.9830     1.0040     8.4730 ca         1 NEK      -0.184500
      7 C08         -0.5330    -0.0590     5.1490 ce         1 NEK       0.372800
      8 C11         -2.5010    -1.7400     2.7700 c3         1 NEK       0.177600
      9 C12         -2.5870    -1.5930     1.2420 c3         1 NEK      -0.223400
     10 C13         -3.6220    -2.5910     0.7240 c          1 NEK       0.724000
     11 N09         -1.3990    -0.8840     4.6460 n2         1 NEK      -0.302700
     12 O07          0.5970     0.2520    10.7080 oh         1 NEK      -0.542100
     13 O10         -1.5240    -0.7950     3.2440 os         1 NEK      -0.327000
     14 O14         -4.7880    -2.2340     0.6690 o          1 NEK      -0.734500
     15 O15         -3.2430    -3.7160     0.4390 o          1 NEK      -0.734500
     16 H02         -1.1570    -1.4050     9.6090 ha         1 NEK       0.114000
     17 H03         -1.6630    -1.5560     7.1960 ha         1 NEK       0.125000
     18 H05          1.2260     1.5790     6.4050 ha         1 NEK       0.125000
     19 H06          1.7210     1.7160     8.8340 ha         1 NEK       0.114000
     20 H08          0.0320     0.6280     4.5150 h4         1 NEK      -0.003200
     21 H111        -3.4850    -1.5400     3.2160 h1         1 NEK       0.043200
     22 H112        -2.2060    -2.7670     3.0260 h1         1 NEK       0.043200
     23 H121        -1.5880    -1.8300     0.8560 hc         1 NEK       0.029200
     24 H122        -2.9100    -0.5620     1.0530 hc         1 NEK       0.029200
     25 HO07         0.0410    -0.4010    11.1840 ho         1 NEK       0.461000
@<TRIPOS>BOND
     1     1     2 ar  
     2     1     6 ar  
     3     1    12 1   
     4     2     3 ar  
     5     2    16 1   
     6     3     4 ar  
     7     3    17 1   
     8     4     5 ar  
     9     4     7 1   
    10     5     6 ar  
    11     5    18 1   
    12     6    19 1   
    13     7    11 2   
    14     7    20 1   
    15     8     9 1   
    16     8    13 1   
    17     8    21 1   
    18     8    22 1   
    19     9    10 1   
    20     9    23 1   
    21     9    24 1   
    22    10    14 1   
    23    10    15 1   
    24    11    13 1   
    25    12    25 1   
@<TRIPOS>SUBSTRUCTURE
     1 NEK         1 TEMP              0 ****  ****    0 ROOT
