@<TRIPOS>MOLECULE
NEL
   32    34     1     0     0
SMALL
abcg2


@<TRIPOS>ATOM
      1 N1           5.7110     0.9960    17.3250 na         1 NEL      -0.077400
      2 C4          11.2660    -0.8790    22.1910 ca         1 NEL      -0.068300
      3 C5           9.8780    -1.3790    21.8940 c3         1 NEL      -0.109100
      4 C6           9.0970    -0.4280    20.9910 c          1 NEL       0.599100
      5 C7           6.8220     0.4880    20.6520 ca         1 NEL       0.048000
      6 C8           5.9500     1.2670    21.3930 ca         1 NEL      -0.195000
      7 C10          4.7630     2.0350    19.4080 ca         1 NEL      -0.150000
      8 C13          6.6670     0.4630    19.2520 ca         1 NEL      -0.234900
      9 O            9.6120     0.1370    20.0370 o          1 NEL      -0.560100
     10 C3          11.4940    -0.0430    23.2840 ca         1 NEL      -0.102000
     11 C2          12.7690     0.4410    23.5500 ca         1 NEL      -0.101000
     12 C1          13.8390     0.1010    22.7290 ca         1 NEL      -0.096000
     13 C14         12.3340    -1.2240    21.3650 ca         1 NEL      -0.076000
     14 C           13.6010    -0.7320    21.6450 ca         1 NEL       0.126000
     15 CL          14.9380    -1.1790    20.6000 cl         1 NEL      -0.211000
     16 N            7.7830    -0.2980    21.3240 ns         1 NEL      -0.162000
     17 C12          7.2730    -0.2150    18.1550 cc         1 NEL       0.386800
     18 N2           6.6920     0.1150    17.0170 nd         1 NEL      -0.519100
     19 C11          5.6400     1.2400    18.6610 ca         1 NEL      -0.015200
     20 C9           4.9360     2.0260    20.7770 ca         1 NEL      -0.051000
     21 H1           5.1340     1.3800    16.5950 hn         1 NEL       0.376000
     22 H2           9.3330    -1.5510    22.8230 hc         1 NEL       0.067200
     23 H3           9.9250    -2.3330    21.3620 hc         1 NEL       0.067200
     24 H4           6.0530     1.2900    22.4710 ha         1 NEL       0.113000
     25 H5           3.9820     2.6150    18.9340 ha         1 NEL       0.122000
     26 H6          10.6690     0.2260    23.9320 ha         1 NEL       0.112000
     27 H7          12.9380     1.0870    24.4020 ha         1 NEL       0.119000
     28 H8          14.8360     0.4690    22.9280 ha         1 NEL       0.131000
     29 H9          12.1790    -1.8750    20.5150 ha         1 NEL       0.133000
     30 H10          7.5010    -0.6670    22.2200 hn         1 NEL       0.152000
     31 H11          8.0990    -0.9050    18.1650 h4         1 NEL       0.058800
     32 H12          4.2810     2.6200    21.4010 ha         1 NEL       0.115000
@<TRIPOS>BOND
     1     1    18 1   
     2     1    19 1   
     3     1    21 1   
     4     2     3 1   
     5     2    10 ar  
     6     2    13 ar  
     7     3     4 1   
     8     3    22 1   
     9     3    23 1   
    10     4     9 2   
    11     4    16 1   
    12     5     6 ar  
    13     5     8 ar  
    14     5    16 1   
    15     6    20 ar  
    16     6    24 1   
    17     7    19 ar  
    18     7    20 ar  
    19     7    25 1   
    20     8    17 1   
    21     8    19 ar  
    22    10    11 ar  
    23    10    26 1   
    24    11    12 ar  
    25    11    27 1   
    26    12    14 ar  
    27    12    28 1   
    28    13    14 ar  
    29    13    29 1   
    30    14    15 1   
    31    16    30 1   
    32    17    18 2   
    33    17    31 1   
    34    20    32 1   
@<TRIPOS>SUBSTRUCTURE
     1 NEL         1 TEMP              0 ****  ****    0 ROOT
