@<TRIPOS>MOLECULE
NEL
   32    34     1     0     0
SMALL
No Charge or Current Charge


@<TRIPOS>ATOM
      1 N1           5.3420     0.8600    17.4850 na         1 NEL      -0.077400
      2 C4          11.2260    -1.0140    22.0560 ca         1 NEL      -0.068300
      3 C5          10.0170    -1.7580    21.4970 c3         1 NEL      -0.109100
      4 C6           9.2140    -0.8540    20.5540 c          1 NEL       0.599100
      5 C7           7.0890     0.5520    20.5670 ca         1 NEL       0.048000
      6 C8           6.5130     1.5540    21.3790 ca         1 NEL      -0.195000
      7 C10          5.0490     2.2700    19.5490 ca         1 NEL      -0.150000
      8 C13          6.5950     0.4310    19.2540 ca         1 NEL      -0.234900
      9 O            9.5780    -0.6340    19.4050 o          1 NEL      -0.560100
     10 C3          11.1290    -0.3120    23.2740 ca         1 NEL      -0.102000
     11 C2          12.2420     0.3790    23.7860 ca         1 NEL      -0.101000
     12 C1          13.4580     0.3740    23.0810 ca         1 NEL      -0.096000
     13 C14         12.4480    -1.0140    21.3530 ca         1 NEL      -0.076000
     14 C           13.5590    -0.3230    21.8660 ca         1 NEL       0.126000
     15 Cl          15.0800    -0.3280    20.9820 cl         1 NEL      -0.211000
     16 N            8.0860    -0.2860    21.1230 ns         1 NEL      -0.162000
     17 C12          6.8580    -0.5020    18.1800 cc         1 NEL       0.386800
     18 N2           6.1020    -0.2500    17.0970 nd         1 NEL      -0.519100
     19 C11          5.6230     1.2560    18.7740 ca         1 NEL      -0.015200
     20 C9           5.5060     2.4140    20.8750 ca         1 NEL      -0.051000
     21 H1           4.6620     1.2900    16.8600 hn         1 NEL       0.376000
     22 H2           9.3810    -2.0830    22.3290 hc         1 NEL       0.067200
     23 H3          10.3550    -2.6370    20.9360 hc         1 NEL       0.067200
     24 H4           6.8510     1.6780    22.4050 ha         1 NEL       0.113000
     25 H5           4.2690     2.9140    19.1500 ha         1 NEL       0.122000
     26 H6          10.1930    -0.3010    23.8270 ha         1 NEL       0.112000
     27 H7          12.1610     0.9180    24.7270 ha         1 NEL       0.119000
     28 H8          14.3190     0.9080    23.4740 ha         1 NEL       0.131000
     29 H9          12.5380    -1.5460    20.4100 ha         1 NEL       0.133000
     30 H10          7.9540    -0.4950    22.1040 hn         1 NEL       0.152000
     31 H11          7.5170    -1.3570    18.1250 h4         1 NEL       0.058800
     32 H12          5.0800     3.1840    21.5140 ha         1 NEL       0.115000
@<TRIPOS>BOND
     1     1    18 1   
     2     1    19 1   
     3     1    21 1   
     4     2     3 1   
     5     2    10 ar  
     6     2    13 ar  
     7     3     4 1   
     8     3    22 1   
     9     3    23 1   
    10     4     9 2   
    11     4    16 1   
    12     5     6 ar  
    13     5     8 ar  
    14     5    16 1   
    15     6    20 ar  
    16     6    24 1   
    17     7    19 ar  
    18     7    20 ar  
    19     7    25 1   
    20     8    17 1   
    21     8    19 ar  
    22    10    11 ar  
    23    10    26 1   
    24    11    12 ar  
    25    11    27 1   
    26    12    14 ar  
    27    12    28 1   
    28    13    14 ar  
    29    13    29 1   
    30    14    15 1   
    31    16    30 1   
    32    17    18 2   
    33    17    31 1   
    34    20    32 1   
@<TRIPOS>SUBSTRUCTURE
     1 NEL         1 TEMP              0 ****  ****    0 ROOT
