@<TRIPOS>MOLECULE
NEM
   22    22     1     0     0
SMALL
abcg2


@<TRIPOS>ATOM
      1 N           -1.2350     1.1490    -1.1450 n8         1 NEM      -0.992200
      2 CA           0.0070     0.4620    -1.4470 c3         1 NEM       0.024500
      3 C            0.0570     0.0410    -2.9320 c          1 NEM       0.721000
      4 O           -1.0330    -0.1960    -3.4900 o          1 NEM      -0.733000
      5 CB           0.2550    -0.7950    -0.5820 c3         1 NEM      -0.131700
      6 CG           0.3390    -0.4760     0.8700 cc         1 NEM       0.281300
      7 ND1          1.4450     0.1120     1.4210 nc         1 NEM      -0.661000
      8 CD2         -0.6230    -0.6280     1.8330 cd         1 NEM      -0.263000
      9 CE1          1.1540     0.3020     2.6830 cd         1 NEM       0.371400
     10 NE2         -0.0850    -0.1290     2.9880 na         1 NEM      -0.181500
     11 CM          -0.7280    -0.0630     4.2800 c3         1 NEM       0.067900
     12 OXT          1.1910    -0.0720    -3.4380 o          1 NEM      -0.733000
     13 H           -1.3970     1.1530    -0.1440 hn         1 NEM       0.376500
     14 HN2         -1.9940     0.6240    -1.5610 hn         1 NEM       0.376500
     15 HA           0.8400     1.1490    -1.2610 h1         1 NEM       0.059700
     16 HB1          1.1860    -1.2700    -0.9050 hc         1 NEM       0.055200
     17 HB2         -0.5520    -1.5120    -0.7570 hc         1 NEM       0.055200
     18 HD2         -1.6150    -1.0480     1.7960 h4         1 NEM       0.148000
     19 HE1          1.8040     0.7410     3.4260 h5         1 NEM       0.036100
     20 HM1         -1.6130     0.5690     4.2380 h1         1 NEM       0.041033
     21 HM2         -1.0180    -1.0570     4.6140 h1         1 NEM       0.041033
     22 HM3         -0.0330     0.3570     5.0010 h1         1 NEM       0.041033
@<TRIPOS>BOND
     1     1     2 1   
     2     1    13 1   
     3     1    14 1   
     4     2     3 1   
     5     2     5 1   
     6     2    15 1   
     7     3     4 1   
     8     3    12 1   
     9     5     6 1   
    10     5    16 1   
    11     5    17 1   
    12     6     7 1   
    13     6     8 2   
    14     7     9 2   
    15     8    10 1   
    16     8    18 1   
    17     9    10 1   
    18     9    19 1   
    19    10    11 1   
    20    11    20 1   
    21    11    21 1   
    22    11    22 1   
@<TRIPOS>SUBSTRUCTURE
     1 NEM         1 TEMP              0 ****  ****    0 ROOT
