@<TRIPOS>MOLECULE
NEM
   22    22     1     0     0
SMALL
No Charge or Current Charge


@<TRIPOS>ATOM
      1 N           -1.2680     1.1950    -1.1820 n8         1 NEM      -0.992200
      2 CA           0.0000     0.4430    -1.5020 c3         1 NEM       0.024500
      3 C            0.2170     0.0420    -3.0220 c          1 NEM       0.721000
      4 O           -0.6040    -0.6930    -3.5580 o          1 NEM      -0.733000
      5 CB           0.1230    -0.7970    -0.5780 c3         1 NEM      -0.131700
      6 CG           0.2570    -0.4670     0.8830 cc         1 NEM       0.281300
      7 ND1          1.4570    -0.0810     1.4110 nc         1 NEM      -0.661000
      8 CD2         -0.7160    -0.5180     1.8430 cd         1 NEM      -0.263000
      9 CE1          1.2400     0.1210     2.7040 cd         1 NEM       0.371400
     10 NE2         -0.0880    -0.1350     3.0140 na         1 NEM      -0.181500
     11 CM          -0.7050    -0.0300     4.3430 c3         1 NEM       0.067900
     12 OXT          1.1660     0.5310    -3.6220 o          1 NEM      -0.733000
     13 H           -1.3680     1.2660    -0.1630 hn         1 NEM       0.376500
     14 HN2         -2.0710     0.6230    -1.4710 hn         1 NEM       0.376500
     15 HA           0.8380     1.1100    -1.2490 h1         1 NEM       0.059700
     16 HB1          1.0000    -1.3770    -0.8900 hc         1 NEM       0.055200
     17 HB2         -0.7410    -1.4550    -0.7310 hc         1 NEM       0.055200
     18 HD2         -1.7630    -0.7890     1.7770 h4         1 NEM       0.148000
     19 HE1          1.9630     0.4360     3.4480 h5         1 NEM       0.036100
     20 HM1         -1.7590     0.2590     4.2400 h1         1 NEM       0.041033
     21 HM2         -0.6430    -0.9990     4.8540 h1         1 NEM       0.041033
     22 HM3         -0.1800     0.7280     4.9370 h1         1 NEM       0.041033
@<TRIPOS>BOND
     1     1     2 1   
     2     1    13 1   
     3     1    14 1   
     4     2     3 1   
     5     2     5 1   
     6     2    15 1   
     7     3     4 1   
     8     3    12 1   
     9     5     6 1   
    10     5    16 1   
    11     5    17 1   
    12     6     7 1   
    13     6     8 2   
    14     7     9 2   
    15     8    10 1   
    16     8    18 1   
    17     9    10 1   
    18     9    19 1   
    19    10    11 1   
    20    11    20 1   
    21    11    21 1   
    22    11    22 1   
@<TRIPOS>SUBSTRUCTURE
     1 NEM         1 TEMP              0 ****  ****    0 ROOT
