@<TRIPOS>MOLECULE
NEN
   18    18     1     0     0
SMALL
No Charge or Current Charge


@<TRIPOS>ATOM
      1 O1          -2.1860     0.7110    -0.1630 o          1 NEN      -0.504000
      2 N1           0.0380     0.1670     0.2390 n          1 NEN      -0.387400
      3 C1          -0.7350    -0.4560    -1.8350 c5         1 NEN      -0.169400
      4 C2          -1.1450     0.1600    -0.4890 c          1 NEN       0.566000
      5 C3           1.2130    -0.0680    -0.4670 c          1 NEN       0.566000
      6 C4           0.7660    -0.0520    -1.9370 c5         1 NEN      -0.169400
      7 C6          -0.0950    -0.7140     2.5850 c3         1 NEN      -0.111100
      8 H11         -0.7930    -1.5450    -1.7320 hc         1 NEN       0.085700
      9 H12         -1.3850    -0.1270    -2.6530 hc         1 NEN       0.085700
     10 H41          1.4000    -0.6850    -2.5650 hc         1 NEN       0.085700
     11 H42          0.8250     0.9850    -2.2880 hc         1 NEN       0.085700
     12 H51         -0.7380     1.2330     1.8940 h1         1 NEN       0.063700
     13 H52          1.0150     1.0150     1.9080 h1         1 NEN       0.063700
     14 H61         -0.0680    -0.4140     3.6390 hc         1 NEN       0.045367
     15 H62         -1.0510    -1.2150     2.3930 hc         1 NEN       0.045367
     16 H63          0.7150    -1.4320     2.4090 hc         1 NEN       0.045367
     17 C5           0.0640     0.5160     1.6750 c3         1 NEN       0.105000
     18 O2           2.2810    -0.4020     0.0230 o          1 NEN      -0.504000
@<TRIPOS>BOND
     1     1     4 2   
     2     2     4 1   
     3     2     5 1   
     4     2    17 1   
     5     3     4 1   
     6     3     6 1   
     7     3     8 1   
     8     3     9 1   
     9     5     6 1   
    10     5    18 2   
    11     6    10 1   
    12     6    11 1   
    13     7    14 1   
    14     7    15 1   
    15     7    16 1   
    16     7    17 1   
    17    12    17 1   
    18    13    17 1   
@<TRIPOS>SUBSTRUCTURE
     1 NEN         1 TEMP              0 ****  ****    0 ROOT
