@<TRIPOS>MOLECULE
NEN
   18    18     1     0     0
SMALL
bcc


@<TRIPOS>ATOM
      1 O1          -2.2560     0.1590    -0.0130 o          1 NEN      -0.579500
      2 N1           0.0100     0.2330     0.2790 n          1 NEN      -0.521400
      3 C1          -0.7470    -0.2530    -1.8820 c5         1 NEN      -0.169400
      4 C2          -1.1390     0.0630    -0.4620 c          1 NEN       0.708500
      5 C3           1.1620     0.0400    -0.4520 c          1 NEN       0.708500
      6 C4           0.7760    -0.2590    -1.8780 c5         1 NEN      -0.169400
      7 C6          -0.0110    -0.7180     2.5620 c3         1 NEN      -0.111100
      8 H11         -1.1770    -1.2130    -2.1670 hc         1 NEN       0.085700
      9 H12         -1.1700     0.5010    -2.5480 hc         1 NEN       0.085700
     10 H41          1.2030    -1.2170    -2.1740 hc         1 NEN       0.085700
     11 H42          1.2070     0.5010    -2.5300 hc         1 NEN       0.085700
     12 H51         -0.8630     1.1540     1.9060 h1         1 NEN       0.063700
     13 H52          0.8890     1.1340     1.9130 h1         1 NEN       0.063700
     14 H61         -0.0150    -0.4350     3.6150 hc         1 NEN       0.045367
     15 H62         -0.8990    -1.3200     2.3740 hc         1 NEN       0.045367
     16 H63          0.8680    -1.3370     2.3860 hc         1 NEN       0.045367
     17 C5           0.0070     0.5320     1.7000 c3         1 NEN       0.105000
     18 O2           2.2760     0.1120     0.0070 o          1 NEN      -0.579500
@<TRIPOS>BOND
     1     1     4 2   
     2     2     4 1   
     3     2     5 1   
     4     2    17 1   
     5     3     4 1   
     6     3     6 1   
     7     3     8 1   
     8     3     9 1   
     9     5     6 1   
    10     5    18 2   
    11     6    10 1   
    12     6    11 1   
    13     7    14 1   
    14     7    15 1   
    15     7    16 1   
    16     7    17 1   
    17    12    17 1   
    18    13    17 1   
@<TRIPOS>SUBSTRUCTURE
     1 NEN         1 TEMP              0 ****  ****    0 ROOT
