@<TRIPOS>MOLECULE
NEO
   29    30     1     0     0
SMALL
No Charge or Current Charge


@<TRIPOS>ATOM
      1 N2          -1.0900     0.4920     3.6810 ns         1 NEO      -0.460400
      2 C1          -1.3540     0.9040     2.4180 c          1 NEO       0.492500
      3 C10         -0.3040     0.5010     1.4180 ca         1 NEO       0.153500
      4 N9          -0.4550     0.8540     0.1050 nb         1 NEO      -0.573000
      5 C8           0.5220     0.4670    -0.7470 ca         1 NEO       0.233300
      6 C7           1.6320    -0.2680    -0.2820 ca         1 NEO       0.107900
      7 N6           1.7740    -0.6130     1.0140 nb         1 NEO      -0.119000
      8 C5           0.8210    -0.2440     1.9020 ca         1 NEO       0.328000
      9 N4           0.9860    -0.6150     3.2600 nc         1 NEO      -0.773700
     10 C3           0.0030    -0.2040     4.0130 cd         1 NEO       0.749800
     11 N13          0.1310    -0.5420     5.2760 nv         1 NEO      -1.053200
     12 C16          0.3580     0.8540    -2.2260 c3         1 NEO       0.138000
     13 O21          1.5790     1.3850    -2.7860 oh         1 NEO      -0.716000
     14 C26         -0.0960    -0.3570    -3.0900 c3         1 NEO       0.133300
     15 O22          1.0200    -1.2390    -3.3190 oh         1 NEO      -0.675000
     16 C28         -0.6810     0.0520    -4.4690 c3         1 NEO       0.121600
     17 O24         -0.9630    -1.1290    -5.2460 oh         1 NEO      -0.730000
     18 O11         -2.3630     1.5450     2.1570 o          1 NEO      -0.494000
     19 HN2         -1.7520     0.7580     4.3910 hn         1 NEO       0.325500
     20 H7           2.4240    -0.5880    -0.9560 h4         1 NEO       0.040100
     21 H131         0.8770    -1.2110     5.4180 hn         1 NEO       0.511500
     22 H132        -0.7200    -0.7420     5.7850 hn         1 NEO       0.511500
     23 H16         -0.4330     1.6160    -2.2770 h1         1 NEO       0.091700
     24 H21          2.0230     0.5930    -3.1820 ho         1 NEO       0.521000
     25 H26         -0.8910    -0.8840    -2.5430 h1         1 NEO       0.081700
     26 H22          0.7410    -1.7770    -4.0990 ho         1 NEO       0.466000
     27 H281        -1.5980     0.6360    -4.3080 h1         1 NEO       0.038200
     28 H282         0.0350     0.6970    -4.9970 h1         1 NEO       0.038200
     29 H24         -1.3890    -0.8320    -6.0850 ho         1 NEO       0.511000
@<TRIPOS>BOND
     1     1     2 1   
     2     1    10 1   
     3     1    19 1   
     4     2     3 1   
     5     2    18 2   
     6     3     4 ar  
     7     3     8 ar  
     8     4     5 ar  
     9     5     6 ar  
    10     5    12 1   
    11     6     7 ar  
    12     6    20 1   
    13     7     8 ar  
    14     8     9 1   
    15     9    10 2   
    16    10    11 1   
    17    11    21 1   
    18    11    22 1   
    19    12    13 1   
    20    12    14 1   
    21    12    23 1   
    22    13    24 1   
    23    14    15 1   
    24    14    16 1   
    25    14    25 1   
    26    15    26 1   
    27    16    17 1   
    28    16    27 1   
    29    16    28 1   
    30    17    29 1   
@<TRIPOS>SUBSTRUCTURE
     1 NEO         1 TEMP              0 ****  ****    0 ROOT
