@<TRIPOS>MOLECULE
NEO
   29    30     1     0     0
SMALL
bcc


@<TRIPOS>ATOM
      1 N2          -1.2130     0.0020     3.3650 ns         1 NEO      -0.527400
      2 C1          -1.4620     0.2840     2.0400 c          1 NEO       0.635000
      3 C10         -0.2460     0.2780     1.2260 ca         1 NEO       0.153500
      4 N9          -0.3520     0.5300    -0.0720 nb         1 NEO      -0.573000
      5 C8           0.7450     0.5120    -0.7970 ca         1 NEO       0.233300
      6 C7           1.9820     0.2450    -0.1840 ca         1 NEO       0.370900
      7 N6           2.1010    -0.0030     1.1010 nb         1 NEO      -0.645000
      8 C5           0.9860     0.0050     1.8440 ca         1 NEO       0.591000
      9 N4           1.1170    -0.2540     3.1640 nc         1 NEO      -0.773700
     10 C3           0.0290    -0.2480     3.8840 cd         1 NEO       0.749800
     11 N13          0.0910    -0.4760     5.1950 nv         1 NEO      -0.942800
     12 C16          0.6100     0.8070    -2.2770 c3         1 NEO       0.114800
     13 O21          1.8550     0.8360    -2.9230 oh         1 NEO      -0.593800
     14 C26         -0.3510    -0.1830    -2.9350 c3         1 NEO       0.110100
     15 O22          0.2760    -1.4460    -2.8890 oh         1 NEO      -0.612800
     16 C28         -0.6880     0.2260    -4.3590 c3         1 NEO       0.098400
     17 O24         -1.5620    -0.7530    -4.8820 oh         1 NEO      -0.607800
     18 O11         -2.5840     0.5030     1.6350 o          1 NEO      -0.569500
     19 HN2         -2.0150    -0.0140     3.9830 hn         1 NEO       0.325500
     20 H7           2.8960     0.2410    -0.7650 h4         1 NEO       0.040100
     21 H131         0.9750    -0.7370     5.5990 hn         1 NEO       0.456300
     22 H132        -0.7320    -0.5970     5.7590 hn         1 NEO       0.456300
     23 H16          0.1780     1.8100    -2.3730 h1         1 NEO       0.091700
     24 H21          2.1180    -0.0750    -3.1050 ho         1 NEO       0.422000
     25 H26         -1.2810    -0.1830    -2.3490 h1         1 NEO       0.081700
     26 H22         -0.1670    -2.0230    -3.5210 ho         1 NEO       0.427000
     27 H281        -1.1540     1.2190    -4.3410 h1         1 NEO       0.038200
     28 H282         0.2270     0.3000    -4.9550 h1         1 NEO       0.038200
     29 H24         -1.5450    -0.6970    -5.8410 ho         1 NEO       0.412000
@<TRIPOS>BOND
     1     1     2 1   
     2     1    10 1   
     3     1    19 1   
     4     2     3 1   
     5     2    18 2   
     6     3     4 ar  
     7     3     8 ar  
     8     4     5 ar  
     9     5     6 ar  
    10     5    12 1   
    11     6     7 ar  
    12     6    20 1   
    13     7     8 ar  
    14     8     9 1   
    15     9    10 2   
    16    10    11 1   
    17    11    21 1   
    18    11    22 1   
    19    12    13 1   
    20    12    14 1   
    21    12    23 1   
    22    13    24 1   
    23    14    15 1   
    24    14    16 1   
    25    14    25 1   
    26    15    26 1   
    27    16    17 1   
    28    16    27 1   
    29    16    28 1   
    30    17    29 1   
@<TRIPOS>SUBSTRUCTURE
     1 NEO         1 TEMP              0 ****  ****    0 ROOT
