@<TRIPOS>MOLECULE
NEP
   22    22     1     0     0
SMALL
bcc


@<TRIPOS>ATOM
      1 N           13.9330    -8.0740    17.7690 n8         1 NEP      -0.897800
      2 CA          14.1250    -6.8690    16.9810 c3         1 NEP       0.032500
      3 C           12.8130    -6.4490    16.2740 c          1 NEP       0.929600
      4 O           11.9260    -7.3160    16.1490 o          1 NEP      -0.874800
      5 CB          15.2360    -6.9740    15.9180 c3         1 NEP      -0.095700
      6 CG          16.5670    -7.3830    16.4630 cc         1 NEP       0.210600
      7 ND1         17.4380    -8.1490    15.7390 nc         1 NEP      -0.800000
      8 CD2         17.1340    -7.0900    17.6800 cd         1 NEP      -0.239600
      9 CE1         18.4920    -8.2980    16.5190 cd         1 NEP       0.348400
     10 NE2         18.3640    -7.6820    17.7030 na         1 NEP      -0.065700
     11 P           19.5170    -7.7870    19.1450 p5         1 NEP       1.115000
     12 O1P         20.7080    -8.4720    18.5000 o          1 NEP      -0.908500
     13 O2P         19.6920    -6.3270    19.5150 o          1 NEP      -0.908500
     14 O3P         18.7120    -8.6250    20.1190 o          1 NEP      -0.908500
     15 OXT         12.7760    -5.2740    15.8530 o          1 NEP      -0.874800
     16 H           14.8340    -8.4760    17.9970 hn         1 NEP       0.331800
     17 H2          13.4420    -8.7540    17.2010 hn         1 NEP       0.331800
     18 HA          14.4020    -6.0570    17.6650 h1         1 NEP       0.043700
     19 HB2         14.9380    -7.7040    15.1570 hc         1 NEP       0.021700
     20 HB3         15.3160    -6.0140    15.4000 hc         1 NEP       0.021700
     21 HD2         16.7580    -6.5200    18.5150 h4         1 NEP       0.158000
     22 HE1         19.3760    -8.8630    16.2630 h5         1 NEP       0.028100
@<TRIPOS>BOND
     1     1     2 1   
     2     1    16 1   
     3     1    17 1   
     4     2     3 1   
     5     2     5 1   
     6     2    18 1   
     7     3     4 1   
     8     3    15 1   
     9     5     6 1   
    10     5    19 1   
    11     5    20 1   
    12     6     7 1   
    13     6     8 2   
    14     7     9 2   
    15     8    10 1   
    16     8    21 1   
    17     9    10 1   
    18     9    22 1   
    19    10    11 1   
    20    11    12 1   
    21    11    13 1   
    22    11    14 1   
@<TRIPOS>SUBSTRUCTURE
     1 NEP         1 TEMP              0 ****  ****    0 ROOT
