@<TRIPOS>MOLECULE
NEP
   22    22     1     0     0
SMALL
No Charge or Current Charge


@<TRIPOS>ATOM
      1 N           13.6740    -8.5260    17.1750 n8         1 NEP      -0.897800
      2 CA          13.9670    -7.0670    16.9140 c3         1 NEP       0.032500
      3 C           12.7820    -6.1770    16.3250 c          1 NEP       0.929600
      4 O           12.2040    -6.5470    15.3050 o          1 NEP      -0.874800
      5 CB          15.2430    -6.9410    16.0410 c3         1 NEP      -0.095700
      6 CG          16.4940    -7.4670    16.7030 cc         1 NEP       0.210600
      7 ND1         16.9120    -8.7600    16.5230 nc         1 NEP      -0.800000
      8 CD2         17.3530    -6.7740    17.5110 cd         1 NEP      -0.239600
      9 CE1         18.0370    -8.8810    17.2270 cd         1 NEP       0.348400
     10 NE2         18.3390    -7.6910    17.8450 na         1 NEP      -0.065700
     11 P           19.8350    -7.4700    18.9030 p5         1 NEP       1.115000
     12 O1P         21.0450    -7.7350    18.0730 o          1 NEP      -0.908500
     13 O2P         19.8640    -6.0750    19.4340 o          1 NEP      -0.908500
     14 O3P         19.7740    -8.4530    20.0230 o          1 NEP      -0.908500
     15 OXT         12.4120    -5.1900    16.9560 o          1 NEP      -0.874800
     16 H           14.5750    -9.0040    17.2990 hn         1 NEP       0.331800
     17 H2          13.2970    -8.9370    16.3140 hn         1 NEP       0.331800
     18 HA          14.2150    -6.6250    17.8880 h1         1 NEP       0.043700
     19 HB2         15.0810    -7.4420    15.0780 hc         1 NEP       0.021700
     20 HB3         15.3960    -5.8810    15.8040 hc         1 NEP       0.021700
     21 HD2         17.3430    -5.7490    17.8580 h4         1 NEP       0.158000
     22 HE1         18.6580    -9.7640    17.3270 h5         1 NEP       0.028100
@<TRIPOS>BOND
     1     1     2 1   
     2     1    16 1   
     3     1    17 1   
     4     2     3 1   
     5     2     5 1   
     6     2    18 1   
     7     3     4 1   
     8     3    15 1   
     9     5     6 1   
    10     5    19 1   
    11     5    20 1   
    12     6     7 1   
    13     6     8 2   
    14     7     9 2   
    15     8    10 1   
    16     8    21 1   
    17     9    10 1   
    18     9    22 1   
    19    10    11 1   
    20    11    12 1   
    21    11    13 1   
    22    11    14 1   
@<TRIPOS>SUBSTRUCTURE
     1 NEP         1 TEMP              0 ****  ****    0 ROOT
