@<TRIPOS>MOLECULE
NEQ
   16    16     1     0     0
SMALL
bcc


@<TRIPOS>ATOM
      1 N1           0.0300     0.2430     0.2560 n          1 NEQ      -0.532400
      2 O1          -2.2400     0.1010    -0.0980 o          1 NEQ      -0.553500
      3 O2           2.2960     0.1660    -0.1370 o          1 NEQ      -0.553500
      4 C1          -1.1060     0.0310    -0.4990 c          1 NEQ       0.695700
      5 C2          -0.6440    -0.2830    -1.8840 cc         1 NEQ      -0.185200
      6 C3           0.6820    -0.2630    -1.8950 cd         1 NEQ      -0.185200
      7 C4           1.1580     0.0630    -0.5170 c          1 NEQ       0.695700
      8 C5           0.0340     0.5420     1.6750 c3         1 NEQ       0.115000
      9 C6           0.0220    -0.7050     2.5410 c3         1 NEQ      -0.113100
     10 H21         -1.3270    -0.4830    -2.6960 ha         1 NEQ       0.176000
     11 H31          1.3570    -0.4430    -2.7170 ha         1 NEQ       0.176000
     12 H51         -0.8320     1.1690     1.8850 h1         1 NEQ       0.063700
     13 H52          0.9170     1.1450     1.8820 h1         1 NEQ       0.063700
     14 H61          0.0550    -0.4200     3.5930 hc         1 NEQ       0.046033
     15 H62         -0.8810    -1.2940     2.3830 hc         1 NEQ       0.046033
     16 H63          0.8850    -1.3390     2.3390 hc         1 NEQ       0.046033
@<TRIPOS>BOND
     1     1     4 1   
     2     1     7 1   
     3     1     8 1   
     4     2     4 2   
     5     3     7 2   
     6     4     5 1   
     7     5     6 2   
     8     5    10 1   
     9     6     7 1   
    10     6    11 1   
    11     8     9 1   
    12     8    12 1   
    13     8    13 1   
    14     9    14 1   
    15     9    15 1   
    16     9    16 1   
@<TRIPOS>SUBSTRUCTURE
     1 NEQ         1 TEMP              0 ****  ****    0 ROOT
