@<TRIPOS>MOLECULE
NEQ
   16    16     1     0     0
SMALL
No Charge or Current Charge


@<TRIPOS>ATOM
      1 N1           0.0240     0.1670     0.2200 n          1 NEQ      -0.398400
      2 O1          -2.2970     0.1160    -0.1140 o          1 NEQ      -0.478000
      3 O2           2.3430     0.1310    -0.1360 o          1 NEQ      -0.478000
      4 C1          -1.1480     0.0240    -0.5200 c          1 NEQ       0.553200
      5 C2          -0.6740    -0.2570    -1.8750 cc         1 NEQ      -0.235200
      6 C3           0.7050    -0.2530    -1.8820 cd         1 NEQ      -0.235200
      7 C4           1.1910     0.0320    -0.5280 c          1 NEQ       0.553200
      8 C5           0.0280     0.5320     1.6480 c3         1 NEQ       0.115000
      9 C6           0.0360    -0.6980     2.5710 c3         1 NEQ      -0.113100
     10 H21         -1.3570    -0.4260    -2.7010 ha         1 NEQ       0.226000
     11 H31          1.3860    -0.4170    -2.7100 ha         1 NEQ       0.226000
     12 H51         -0.8570     1.1440     1.8690 h1         1 NEQ       0.063700
     13 H52          0.9120     1.1490     1.8610 h1         1 NEQ       0.063700
     14 H61          0.0390    -0.3870     3.6220 hc         1 NEQ       0.046033
     15 H62         -0.8530    -1.3170     2.3970 hc         1 NEQ       0.046033
     16 H63          0.9270    -1.3110     2.3900 hc         1 NEQ       0.046033
@<TRIPOS>BOND
     1     1     4 1   
     2     1     7 1   
     3     1     8 1   
     4     2     4 2   
     5     3     7 2   
     6     4     5 1   
     7     5     6 2   
     8     5    10 1   
     9     6     7 1   
    10     6    11 1   
    11     8     9 1   
    12     8    12 1   
    13     8    13 1   
    14     9    14 1   
    15     9    15 1   
    16     9    16 1   
@<TRIPOS>SUBSTRUCTURE
     1 NEQ         1 TEMP              0 ****  ****    0 ROOT
