@<TRIPOS>MOLECULE
NER
   71    70     1     0     0
SMALL
abcg2


@<TRIPOS>ATOM
      1 O1          -6.0310   -14.5270     3.1380 o          1 NER      -0.743500
      2 C1          -5.3520   -13.7200     2.4670 c          1 NER       0.717000
      3 C2          -4.5330   -12.6970     3.2750 c3         1 NER      -0.204400
      4 C3          -3.7330   -11.6880     2.4670 c3         1 NER      -0.054400
      5 C4          -2.9760   -10.6980     3.3450 c3         1 NER      -0.080400
      6 C5          -2.1580    -9.6880     2.5500 c3         1 NER      -0.077400
      7 C6          -1.4650    -8.6510     3.4240 c3         1 NER      -0.076400
      8 C7          -0.6870    -7.6090     2.6300 c3         1 NER      -0.077400
      9 C8           0.0510    -6.6130     3.5180 c3         1 NER      -0.073400
     10 C9           0.8690    -5.5740     2.7550 c3         1 NER      -0.070400
     11 C10          0.0340    -4.5790     1.9550 c3         1 NER      -0.076400
     12 C11          0.8790    -3.5210     1.2560 c3         1 NER      -0.074400
     13 C12          0.0510    -2.5260     0.4520 c3         1 NER      -0.077400
     14 C13          0.8820    -1.4150    -0.1750 c3         1 NER      -0.068400
     15 C14          0.0590    -0.4340    -1.0160 c3         1 NER      -0.041200
     16 C15         -0.9510     0.3150    -0.2020 c2         1 NER      -0.217200
     17 C16         -2.2580     0.4420    -0.4280 c2         1 NER      -0.216200
     18 C17         -3.0610    -0.1230    -1.5580 c3         1 NER      -0.042200
     19 C18         -4.1570    -1.0850    -1.0870 c3         1 NER      -0.068400
     20 C19         -3.6070    -2.3310    -0.4070 c3         1 NER      -0.077400
     21 C20         -4.6760    -3.3600    -0.0640 c3         1 NER      -0.074400
     22 C21         -4.1070    -4.5890     0.6350 c3         1 NER      -0.075400
     23 C22         -5.1530    -5.6540     0.9360 c3         1 NER      -0.075400
     24 C23         -4.5800    -6.8730     1.6460 c3         1 NER      -0.075400
     25 C24         -5.6220    -7.9460     1.9250 c3         1 NER      -0.094100
     26 O2          -5.2800   -13.6760     1.2230 o          1 NER      -0.743500
     27 H21         -5.2170   -12.1700     3.9510 hc         1 NER       0.014700
     28 H22         -3.8590   -13.2530     3.9380 hc         1 NER       0.014700
     29 H31         -3.0260   -12.2110     1.8170 hc         1 NER       0.037700
     30 H32         -4.4020   -11.1360     1.8000 hc         1 NER       0.037700
     31 H41         -2.3150   -11.2420     4.0300 hc         1 NER       0.023700
     32 H42         -3.6900   -10.1610     3.9810 hc         1 NER       0.023700
     33 H51         -2.8120    -9.1790     1.8340 hc         1 NER       0.034700
     34 H52         -1.4110   -10.2180     1.9480 hc         1 NER       0.034700
     35 H61         -2.2120    -8.1440     4.0440 hc         1 NER       0.032200
     36 H62         -0.7880    -9.1590     4.1210 hc         1 NER       0.032200
     37 H71          0.0340    -8.1130     1.9760 hc         1 NER       0.036200
     38 H72         -1.3800    -7.0790     1.9680 hc         1 NER       0.036200
     39 H81          0.7170    -7.1660     4.1880 hc         1 NER       0.035200
     40 H82         -0.6710    -6.1010     4.1650 hc         1 NER       0.035200
     41 H91          1.5670    -6.0850     2.0840 hc         1 NER       0.032200
     42 H92          1.4880    -5.0180     3.4670 hc         1 NER       0.032200
     43 H101        -0.5720    -5.1060     1.2110 hc         1 NER       0.040700
     44 H102        -0.6790    -4.0850     2.6240 hc         1 NER       0.040700
     45 H111         1.6050    -4.0090     0.5970 hc         1 NER       0.032700
     46 H112         1.4690    -2.9800     2.0050 hc         1 NER       0.032700
     47 H121        -0.7170    -2.0880     1.0970 hc         1 NER       0.041700
     48 H122        -0.4970    -3.0570    -0.3340 hc         1 NER       0.041700
     49 H131         1.4050    -0.8620     0.6140 hc         1 NER       0.034700
     50 H132         1.6620    -1.8530    -0.8050 hc         1 NER       0.034700
     51 H141        -0.4180    -0.9710    -1.8390 hc         1 NER       0.042700
     52 H142         0.7450     0.2840    -1.4780 hc         1 NER       0.042700
     53 H15         -0.5480     0.8070     0.6810 ha         1 NER       0.162000
     54 H16         -2.8340     1.0230     0.2900 ha         1 NER       0.162000
     55 H171        -2.4230    -0.6350    -2.2810 hc         1 NER       0.041700
     56 H172        -3.5340     0.7030    -2.0990 hc         1 NER       0.041700
     57 H181        -4.8360    -0.5610    -0.4050 hc         1 NER       0.036200
     58 H182        -4.7600    -1.3770    -1.9520 hc         1 NER       0.036200
     59 H191        -3.0720    -2.0460     0.5030 hc         1 NER       0.039700
     60 H192        -2.8580    -2.7950    -1.0580 hc         1 NER       0.039700
     61 H201        -5.4400    -2.9000     0.5720 hc         1 NER       0.035200
     62 H202        -5.1910    -3.6710    -0.9800 hc         1 NER       0.035200
     63 H211        -3.3160    -5.0240     0.0140 hc         1 NER       0.035700
     64 H212        -3.6210    -4.2810     1.5680 hc         1 NER       0.035700
     65 H221        -5.9520    -5.2210     1.5480 hc         1 NER       0.034700
     66 H222        -5.6280    -5.9710    -0.0000 hc         1 NER       0.034700
     67 H231        -3.7740    -7.2980     1.0400 hc         1 NER       0.036200
     68 H232        -4.1130    -6.5600     2.5850 hc         1 NER       0.036200
     69 H241        -5.1910    -8.7930     2.4610 hc         1 NER       0.039700
     70 H242        -6.0540    -8.3280     0.9980 hc         1 NER       0.039700
     71 H243        -6.4400    -7.5570     2.5350 hc         1 NER       0.039700
@<TRIPOS>BOND
     1     1     2 1   
     2     2     3 1   
     3     2    26 1   
     4     3     4 1   
     5     3    27 1   
     6     3    28 1   
     7     4     5 1   
     8     4    29 1   
     9     4    30 1   
    10     5     6 1   
    11     5    31 1   
    12     5    32 1   
    13     6     7 1   
    14     6    33 1   
    15     6    34 1   
    16     7     8 1   
    17     7    35 1   
    18     7    36 1   
    19     8     9 1   
    20     8    37 1   
    21     8    38 1   
    22     9    10 1   
    23     9    39 1   
    24     9    40 1   
    25    10    11 1   
    26    10    41 1   
    27    10    42 1   
    28    11    12 1   
    29    11    43 1   
    30    11    44 1   
    31    12    13 1   
    32    12    45 1   
    33    12    46 1   
    34    13    14 1   
    35    13    47 1   
    36    13    48 1   
    37    14    15 1   
    38    14    49 1   
    39    14    50 1   
    40    15    16 1   
    41    15    51 1   
    42    15    52 1   
    43    16    17 2   
    44    16    53 1   
    45    17    18 1   
    46    17    54 1   
    47    18    19 1   
    48    18    55 1   
    49    18    56 1   
    50    19    20 1   
    51    19    57 1   
    52    19    58 1   
    53    20    21 1   
    54    20    59 1   
    55    20    60 1   
    56    21    22 1   
    57    21    61 1   
    58    21    62 1   
    59    22    23 1   
    60    22    63 1   
    61    22    64 1   
    62    23    24 1   
    63    23    65 1   
    64    23    66 1   
    65    24    25 1   
    66    24    67 1   
    67    24    68 1   
    68    25    69 1   
    69    25    70 1   
    70    25    71 1   
@<TRIPOS>SUBSTRUCTURE
     1 NER         1 TEMP              0 ****  ****    0 ROOT
