@<TRIPOS>MOLECULE
NER
   71    70     1     0     0
SMALL
No Charge or Current Charge


@<TRIPOS>ATOM
      1 O1          -6.0900   -13.8860     1.5580 o          1 NER      -0.743500
      2 C1          -4.9980   -14.1120     2.0560 c          1 NER       0.717000
      3 C2          -4.4290   -13.0880     3.0560 c3         1 NER      -0.204400
      4 C3          -3.6120   -12.0070     2.3090 c3         1 NER      -0.054400
      5 C4          -3.0040   -10.9440     3.2510 c3         1 NER      -0.080400
      6 C5          -2.1910    -9.8660     2.5020 c3         1 NER      -0.077400
      7 C6          -1.6150    -8.7830     3.4400 c3         1 NER      -0.076400
      8 C7          -0.7940    -7.7090     2.6930 c3         1 NER      -0.077400
      9 C8          -0.2210    -6.6250     3.6360 c3         1 NER      -0.073400
     10 C9           0.6460    -5.5580     2.9260 c3         1 NER      -0.070400
     11 C10         -0.1460    -4.6010     2.0050 c3         1 NER      -0.076400
     12 C11          0.7490    -3.5440     1.3210 c3         1 NER      -0.074400
     13 C12         -0.0540    -2.5630     0.4420 c3         1 NER      -0.077400
     14 C13          0.8290    -1.5420    -0.3100 c3         1 NER      -0.068400
     15 C14          0.0300    -0.5890    -1.2290 c3         1 NER      -0.041200
     16 C15         -0.8880     0.3520    -0.4630 c2         1 NER      -0.217200
     17 C16         -2.1920     0.6050    -0.6860 c2         1 NER      -0.216200
     18 C17         -3.0890     0.0290    -1.7710 c3         1 NER      -0.042200
     19 C18         -4.1600    -0.9380    -1.2170 c3         1 NER      -0.068400
     20 C19         -3.5640    -2.1770    -0.5130 c3         1 NER      -0.077400
     21 C20         -4.6270    -3.1670     0.0080 c3         1 NER      -0.074400
     22 C21         -4.0030    -4.3820     0.7290 c3         1 NER      -0.075400
     23 C22         -5.0580    -5.3630     1.2860 c3         1 NER      -0.075400
     24 C23         -4.4330    -6.5850     1.9910 c3         1 NER      -0.075400
     25 C24         -5.4830    -7.5540     2.5660 c3         1 NER      -0.094100
     26 O2          -4.3120   -15.0820     1.7700 o          1 NER      -0.743500
     27 H21         -5.2420   -12.5540     3.5630 hc         1 NER       0.014700
     28 H22         -3.7250   -13.5740     3.7440 hc         1 NER       0.014700
     29 H31         -2.8050   -12.4900     1.7440 hc         1 NER       0.037700
     30 H32         -4.2590   -11.5090     1.5760 hc         1 NER       0.037700
     31 H41         -2.3540   -11.4400     3.9830 hc         1 NER       0.023700
     32 H42         -3.8110   -10.4610     3.8160 hc         1 NER       0.023700
     33 H51         -2.8310    -9.3890     1.7500 hc         1 NER       0.034700
     34 H52         -1.3670   -10.3490     1.9610 hc         1 NER       0.034700
     35 H61         -2.4380    -8.2970     3.9780 hc         1 NER       0.032200
     36 H62         -0.9780    -9.2620     4.1950 hc         1 NER       0.032200
     37 H71          0.0320    -8.1940     2.1590 hc         1 NER       0.036200
     38 H72         -1.4310    -7.2390     1.9360 hc         1 NER       0.036200
     39 H81          0.3940    -7.1160     4.4000 hc         1 NER       0.035200
     40 H82         -1.0430    -6.1290     4.1670 hc         1 NER       0.035200
     41 H91          1.4320    -6.0580     2.3460 hc         1 NER       0.032200
     42 H92          1.1560    -4.9610     3.6930 hc         1 NER       0.032200
     43 H101        -0.6640    -5.1770     1.2290 hc         1 NER       0.040700
     44 H102        -0.9190    -4.0930     2.5960 hc         1 NER       0.040700
     45 H111         1.4980    -4.0540     0.7030 hc         1 NER       0.032700
     46 H112         1.2940    -2.9770     2.0860 hc         1 NER       0.032700
     47 H121        -0.7650    -2.0240     1.0790 hc         1 NER       0.041700
     48 H122        -0.6400    -3.1350    -0.2880 hc         1 NER       0.041700
     49 H131         1.4050    -0.9520     0.4140 hc         1 NER       0.034700
     50 H132         1.5570    -2.0880    -0.9230 hc         1 NER       0.034700
     51 H141        -0.5200    -1.1940    -1.9580 hc         1 NER       0.042700
     52 H142         0.7460     0.0060    -1.8090 hc         1 NER       0.042700
     53 H15         -0.3870     0.8620     0.3630 ha         1 NER       0.162000
     54 H16         -2.7100     1.3120    -0.0350 ha         1 NER       0.162000
     55 H171        -2.5100    -0.4890    -2.5430 hc         1 NER       0.041700
     56 H172        -3.5980     0.8500    -2.2890 hc         1 NER       0.041700
     57 H181        -4.8050    -0.3960    -0.5140 hc         1 NER       0.036200
     58 H182        -4.7990    -1.2680    -2.0450 hc         1 NER       0.036200
     59 H191        -2.9570    -1.8440     0.3350 hc         1 NER       0.039700
     60 H192        -2.8950    -2.6990    -1.2080 hc         1 NER       0.039700
     61 H201        -5.2990    -2.6430     0.6990 hc         1 NER       0.035200
     62 H202        -5.2380    -3.5180    -0.8320 hc         1 NER       0.035200
     63 H211        -3.3450    -4.9160     0.0330 hc         1 NER       0.035700
     64 H212        -3.3740    -4.0270     1.5550 hc         1 NER       0.035700
     65 H221        -5.7060    -4.8300     1.9930 hc         1 NER       0.034700
     66 H222        -5.6980    -5.7090     0.4640 hc         1 NER       0.034700
     67 H231        -3.8020    -7.1270     1.2770 hc         1 NER       0.036200
     68 H232        -3.7790    -6.2420     2.8030 hc         1 NER       0.036200
     69 H241        -4.9930    -8.3990     3.0630 hc         1 NER       0.039700
     70 H242        -6.1230    -7.9500     1.7690 hc         1 NER       0.039700
     71 H243        -6.1180    -7.0460     3.3020 hc         1 NER       0.039700
@<TRIPOS>BOND
     1     1     2 1   
     2     2     3 1   
     3     2    26 1   
     4     3     4 1   
     5     3    27 1   
     6     3    28 1   
     7     4     5 1   
     8     4    29 1   
     9     4    30 1   
    10     5     6 1   
    11     5    31 1   
    12     5    32 1   
    13     6     7 1   
    14     6    33 1   
    15     6    34 1   
    16     7     8 1   
    17     7    35 1   
    18     7    36 1   
    19     8     9 1   
    20     8    37 1   
    21     8    38 1   
    22     9    10 1   
    23     9    39 1   
    24     9    40 1   
    25    10    11 1   
    26    10    41 1   
    27    10    42 1   
    28    11    12 1   
    29    11    43 1   
    30    11    44 1   
    31    12    13 1   
    32    12    45 1   
    33    12    46 1   
    34    13    14 1   
    35    13    47 1   
    36    13    48 1   
    37    14    15 1   
    38    14    49 1   
    39    14    50 1   
    40    15    16 1   
    41    15    51 1   
    42    15    52 1   
    43    16    17 2   
    44    16    53 1   
    45    17    18 1   
    46    17    54 1   
    47    18    19 1   
    48    18    55 1   
    49    18    56 1   
    50    19    20 1   
    51    19    57 1   
    52    19    58 1   
    53    20    21 1   
    54    20    59 1   
    55    20    60 1   
    56    21    22 1   
    57    21    61 1   
    58    21    62 1   
    59    22    23 1   
    60    22    63 1   
    61    22    64 1   
    62    23    24 1   
    63    23    65 1   
    64    23    66 1   
    65    24    25 1   
    66    24    67 1   
    67    24    68 1   
    68    25    69 1   
    69    25    70 1   
    70    25    71 1   
@<TRIPOS>SUBSTRUCTURE
     1 NER         1 TEMP              0 ****  ****    0 ROOT
