@<TRIPOS>MOLECULE
NES
   28    27     1     0     0
SMALL
bcc


@<TRIPOS>ATOM
      1 N4          -0.0870     0.6060     1.0080 n7         1 NES      -0.781200
      2 C7          -0.1310    -0.0460    -0.2870 c3         1 NES       0.201800
      3 C8           0.2120     0.9620    -1.3710 c3         1 NES      -0.244600
      4 S            0.1880     0.2450    -3.0220 s6         1 NES       1.211800
      5 O1S          0.5870     1.3400    -3.9300 o          1 NES      -0.701200
      6 O2S          1.1630    -0.8640    -2.9920 o          1 NES      -0.701200
      7 O3S         -1.1990    -0.2120    -3.2480 o          1 NES      -0.701200
      8 O1           1.0080     1.3220     3.5540 oh         1 NES      -0.566467
      9 C2          -0.2140     0.6390     3.4260 c3         1 NES       0.134067
     10 C3          -0.2280    -0.2490     2.1790 c3         1 NES       0.204200
     11 C4           0.8890    -1.3020     2.2300 c3         1 NES       0.134067
     12 O5           2.1430    -0.7480     1.9260 oh         1 NES      -0.566467
     13 C6          -1.5440    -1.0480     2.1900 c3         1 NES       0.134067
     14 O7          -2.6340    -0.1580     2.1500 oh         1 NES      -0.566467
     15 HN4         -0.8120     1.3130     1.0390 hn         1 NES       0.358800
     16 HC71         0.6100    -0.8450    -0.3120 h1         1 NES       0.035700
     17 HC72        -1.1020    -0.5040    -0.5170 h1         1 NES       0.035700
     18 HC81        -0.4980     1.7930    -1.3740 h1         1 NES       0.073200
     19 HC82         1.2090     1.3730    -1.2060 h1         1 NES       0.073200
     20 HO1          0.9390     1.8920     4.3240 ho         1 NES       0.388333
     21 HC21        -0.4050    -0.0050     4.2970 h1         1 NES       0.011200
     22 HC22        -1.0530     1.3440     3.3660 h1         1 NES       0.011200
     23 HC41         0.8760    -1.7580     3.2300 h1         1 NES       0.011200
     24 HC42         0.6420    -2.1100     1.5260 h1         1 NES       0.011200
     25 HO5          2.7590    -1.4790     1.8250 ho         1 NES       0.388333
     26 HC61        -1.5550    -1.7250     1.3260 h1         1 NES       0.011200
     27 HC62        -1.5740    -1.6820     3.0870 h1         1 NES       0.011200
     28 HO7         -3.4430    -0.6750     2.1020 ho         1 NES       0.388333
@<TRIPOS>BOND
     1     1     2 1   
     2     1    10 1   
     3     1    15 1   
     4     2     3 1   
     5     2    16 1   
     6     2    17 1   
     7     3     4 1   
     8     3    18 1   
     9     3    19 1   
    10     4     5 1   
    11     4     6 1   
    12     4     7 1   
    13     8     9 1   
    14     8    20 1   
    15     9    10 1   
    16     9    21 1   
    17     9    22 1   
    18    10    11 1   
    19    10    13 1   
    20    11    12 1   
    21    11    23 1   
    22    11    24 1   
    23    12    25 1   
    24    13    14 1   
    25    13    26 1   
    26    13    27 1   
    27    14    28 1   
@<TRIPOS>SUBSTRUCTURE
     1 NES         1 TEMP              0 ****  ****    0 ROOT
