@<TRIPOS>MOLECULE
NES
   28    27     1     0     0
SMALL
No Charge or Current Charge


@<TRIPOS>ATOM
      1 N4          -0.0460     0.5940     0.9600 n7         1 NES      -0.836400
      2 C7           0.0410    -0.0820    -0.3460 c3         1 NES       0.201800
      3 C8           0.0540     0.9950    -1.4290 c3         1 NES      -0.355400
      4 S            0.1650     0.2800    -3.0770 s6         1 NES       1.322600
      5 O1S          0.1600     1.4550    -3.9600 o          1 NES      -0.701200
      6 O2S          1.4340    -0.4620    -3.0610 o          1 NES      -0.701200
      7 O3S         -1.0350    -0.5620    -3.1810 o          1 NES      -0.701200
      8 O1           1.0910     1.4220     3.5950 oh         1 NES      -0.628667
      9 C2          -0.1150     0.6390     3.4870 c3         1 NES       0.157267
     10 C3          -0.1910    -0.2660     2.1930 c3         1 NES       0.204200
     11 C4           0.8710    -1.4360     2.2570 c3         1 NES       0.157267
     12 O5           2.2420    -1.0080     2.1240 oh         1 NES      -0.628667
     13 C6          -1.6160    -0.9300     2.1730 c3         1 NES       0.157267
     14 O7          -2.6630     0.0370     1.9590 oh         1 NES      -0.628667
     15 HN4         -0.8870     1.1790     0.9390 hn         1 NES       0.414000
     16 HC71         0.9570    -0.6850    -0.4140 h1         1 NES       0.035700
     17 HC72        -0.8200    -0.7460    -0.5030 h1         1 NES       0.035700
     18 HC81        -0.8680     1.5850    -1.4070 h1         1 NES       0.073200
     19 HC82         0.9210     1.6520    -1.3140 h1         1 NES       0.073200
     20 HO1          0.9940     1.9880     4.3900 ho         1 NES       0.427333
     21 HC21        -0.2140    -0.0050     4.3710 h1         1 NES       0.011200
     22 HC22        -0.9760     1.3200     3.4950 h1         1 NES       0.011200
     23 HC41         0.7440    -1.9690     3.2090 h1         1 NES       0.011200
     24 HC42         0.6450    -2.1610     1.4630 h1         1 NES       0.011200
     25 HO5          2.7990    -1.8140     2.1660 ho         1 NES       0.427333
     26 HC61        -1.6530    -1.6890     1.3810 h1         1 NES       0.011200
     27 HC62        -1.7800    -1.4540     3.1240 h1         1 NES       0.011200
     28 HO7         -3.5110    -0.4580     1.9330 ho         1 NES       0.427333
@<TRIPOS>BOND
     1     1     2 1   
     2     1    10 1   
     3     1    15 1   
     4     2     3 1   
     5     2    16 1   
     6     2    17 1   
     7     3     4 1   
     8     3    18 1   
     9     3    19 1   
    10     4     5 1   
    11     4     6 1   
    12     4     7 1   
    13     8     9 1   
    14     8    20 1   
    15     9    10 1   
    16     9    21 1   
    17     9    22 1   
    18    10    11 1   
    19    10    13 1   
    20    11    12 1   
    21    11    23 1   
    22    11    24 1   
    23    12    25 1   
    24    13    14 1   
    25    13    26 1   
    26    13    27 1   
    27    14    28 1   
@<TRIPOS>SUBSTRUCTURE
     1 NES         1 TEMP              0 ****  ****    0 ROOT
