@<TRIPOS>MOLECULE
NET
   29    28     1     0     0
SMALL
abcg2


@<TRIPOS>ATOM
      1 N1           0.0010    -0.0080    -0.0070 n4         1 NET      -0.511000
      2 C1          -0.0060     1.1960    -0.9150 c3         1 NET       0.100850
      3 C2          -0.0230     2.5350    -0.2120 c3         1 NET      -0.121600
      4 C3           1.2060     0.0080     0.8990 c3         1 NET       0.100850
      5 C4           2.5450     0.0180     0.1950 c3         1 NET      -0.121600
      6 C5          -1.2130    -0.0130     0.8880 c3         1 NET       0.100850
      7 C6          -2.5450    -0.0310     0.1710 c3         1 NET      -0.121600
      8 C7           0.0150    -1.2240    -0.9000 c3         1 NET       0.100850
      9 C8           0.0220    -2.5540    -0.1810 c3         1 NET      -0.121600
     10 H11         -0.8750     1.0930    -1.5610 hx         1 NET       0.090575
     11 H12          0.8730     1.1100    -1.5510 hx         1 NET       0.090575
     12 H21         -0.0190     3.3050    -0.9810 hc         1 NET       0.072450
     13 H22         -0.9150     2.6860     0.3940 hc         1 NET       0.072450
     14 H23          0.8520     2.6970     0.4150 hc         1 NET       0.072450
     15 H31          1.1040     0.8830     1.5380 hx         1 NET       0.090575
     16 H32          1.1210    -0.8640     1.5450 hx         1 NET       0.090575
     17 H41          3.3160     0.0260     0.9630 hc         1 NET       0.072450
     18 H42          2.7090    -0.8660    -0.4190 hc         1 NET       0.072450
     19 H43          2.6930     0.9020    -0.4230 hc         1 NET       0.072450
     20 H51         -1.1170    -0.8820     1.5370 hx         1 NET       0.090575
     21 H52         -1.1340     0.8660     1.5250 hx         1 NET       0.090575
     22 H61         -2.7030     0.8460    -0.4540 hc         1 NET       0.072450
     23 H62         -2.6880    -0.9220    -0.4380 hc         1 NET       0.072450
     24 H63         -3.3230    -0.0310     0.9320 hc         1 NET       0.072450
     25 H71         -0.8570    -1.1430    -1.5460 hx         1 NET       0.090575
     26 H72          0.8910    -1.1290    -1.5390 hx         1 NET       0.090575
     27 H81         -0.8670    -2.7140     0.4260 hc         1 NET       0.072450
     28 H82          0.0380    -3.3330    -0.9420 hc         1 NET       0.072450
     29 H83          0.9010    -2.6960     0.4450 hc         1 NET       0.072450
@<TRIPOS>BOND
     1     1     2 1   
     2     1     4 1   
     3     1     6 1   
     4     1     8 1   
     5     2     3 1   
     6     2    10 1   
     7     2    11 1   
     8     3    12 1   
     9     3    13 1   
    10     3    14 1   
    11     4     5 1   
    12     4    15 1   
    13     4    16 1   
    14     5    17 1   
    15     5    18 1   
    16     5    19 1   
    17     6     7 1   
    18     6    20 1   
    19     6    21 1   
    20     7    22 1   
    21     7    23 1   
    22     7    24 1   
    23     8     9 1   
    24     8    25 1   
    25     8    26 1   
    26     9    27 1   
    27     9    28 1   
    28     9    29 1   
@<TRIPOS>SUBSTRUCTURE
     1 NET         1 TEMP              0 ****  ****    0 ROOT
