@<TRIPOS>MOLECULE
NEU
   29    30     1     0     0
SMALL
No Charge or Current Charge


@<TRIPOS>ATOM
      1 N2           3.5580    -1.1920     0.2640 ns         1 NEU      -0.459400
      2 C1           2.2890    -1.4170     0.6750 c          1 NEU       0.493500
      3 C10          1.3370    -0.2980     0.3470 ca         1 NEU       0.153500
      4 N9           0.0230    -0.4050     0.7120 nb         1 NEU      -0.585000
      5 C8          -0.7830     0.6340     0.3790 ca         1 NEU       0.225300
      6 C7          -0.2720     1.7610    -0.2910 ca         1 NEU       0.115900
      7 N6           1.0260     1.8570    -0.6460 nb         1 NEU      -0.114000
      8 C5           1.8680     0.8400    -0.3440 ca         1 NEU       0.335000
      9 N4           3.2280     0.9580    -0.7270 nc         1 NEU      -0.774700
     10 C3           3.9360    -0.0820    -0.3790 cd         1 NEU       0.754800
     11 N13          5.2010     0.0090    -0.7180 nv         1 NEU      -1.054200
     12 C16         -2.2580     0.5320     0.7970 c3         1 NEU       0.107000
     13 O21         -2.3760    -0.3920     1.8990 oh         1 NEU      -0.711000
     14 C26         -3.1730     0.0820    -0.3830 c3         1 NEU       0.135300
     15 O22         -3.0770     1.0090    -1.4760 oh         1 NEU      -0.638000
     16 C28         -4.6720    -0.0230     0.0110 c3         1 NEU       0.131600
     17 O24         -5.4700    -0.2890    -1.1600 oh         1 NEU      -0.709000
     18 O11          1.9820    -2.4510     1.2560 o          1 NEU      -0.494000
     19 HN2          4.2280    -1.9240     0.4390 hn         1 NEU       0.327500
     20 H7          -0.9110     2.6050    -0.5480 h4         1 NEU       0.031100
     21 H131         5.4440     0.9380    -1.0340 hn         1 NEU       0.514000
     22 H132         5.8740    -0.4130    -0.0900 hn         1 NEU       0.514000
     23 H16         -2.5890     1.5300     1.1180 h1         1 NEU       0.068700
     24 H21         -1.5000    -0.8610     1.9050 ho         1 NEU       0.537000
     25 H26         -2.8420    -0.9150    -0.7080 h1         1 NEU       0.096700
     26 H22         -3.9230     0.8850    -1.9660 ho         1 NEU       0.436000
     27 H281        -4.7970    -0.8290     0.7470 h1         1 NEU       0.029200
     28 H282        -4.9910     0.9150     0.4860 h1         1 NEU       0.029200
     29 H24         -6.3990    -0.4230    -0.8540 ho         1 NEU       0.503000
@<TRIPOS>BOND
     1     1     2 1   
     2     1    10 1   
     3     1    19 1   
     4     2     3 1   
     5     2    18 2   
     6     3     4 ar  
     7     3     8 ar  
     8     4     5 ar  
     9     5     6 ar  
    10     5    12 1   
    11     6     7 ar  
    12     6    20 1   
    13     7     8 ar  
    14     8     9 1   
    15     9    10 2   
    16    10    11 1   
    17    11    21 1   
    18    11    22 1   
    19    12    13 1   
    20    12    14 1   
    21    12    23 1   
    22    13    24 1   
    23    14    15 1   
    24    14    16 1   
    25    14    25 1   
    26    15    26 1   
    27    16    17 1   
    28    16    27 1   
    29    16    28 1   
    30    17    29 1   
@<TRIPOS>SUBSTRUCTURE
     1 NEU         1 TEMP              0 ****  ****    0 ROOT
