@<TRIPOS>MOLECULE
NEU
   29    30     1     0     0
SMALL
bcc


@<TRIPOS>ATOM
      1 N2           3.4240    -1.0980     0.2970 ns         1 NEU      -0.526400
      2 C1           2.1290    -1.3190     0.7130 c          1 NEU       0.636000
      3 C10          1.2340    -0.2160     0.3700 ca         1 NEU       0.153500
      4 N9          -0.0450    -0.3000     0.7190 nb         1 NEU      -0.585000
      5 C8          -0.8350     0.7010     0.4130 ca         1 NEU       0.225300
      6 C7          -0.3200     1.8200    -0.2640 ca         1 NEU       0.378900
      7 N6           0.9370     1.9200    -0.6180 nb         1 NEU      -0.640000
      8 C5           1.7540     0.8970    -0.3120 ca         1 NEU       0.598000
      9 N4           3.0480     1.0100    -0.6770 nc         1 NEU      -0.774700
     10 C3           3.8440     0.0220    -0.3670 cd         1 NEU       0.754800
     11 N13          5.1310     0.0680    -0.7040 nv         1 NEU      -0.943800
     12 C16         -2.2880     0.5590     0.7890 c3         1 NEU       0.083800
     13 O21         -2.4330    -0.2050     1.9550 oh         1 NEU      -0.588800
     14 C26         -3.0670    -0.0520    -0.3960 c3         1 NEU       0.112100
     15 O22         -2.8270     0.6790    -1.5750 oh         1 NEU      -0.575800
     16 C28         -4.5480    -0.1580    -0.0750 c3         1 NEU       0.108400
     17 O24         -5.2010    -0.7930    -1.1480 oh         1 NEU      -0.586800
     18 O11          1.8110    -2.3330     1.2990 o          1 NEU      -0.569500
     19 HN2          4.0980    -1.8240     0.5100 hn         1 NEU       0.327500
     20 H7          -0.9670     2.6580    -0.5030 h4         1 NEU       0.031100
     21 H131         5.4880     0.8990    -1.1440 hn         1 NEU       0.458800
     22 H132         5.7920    -0.6360    -0.4220 hn         1 NEU       0.458800
     23 H16         -2.7000     1.5540     0.9990 h1         1 NEU       0.068700
     24 H21         -1.7910    -0.9270     1.9090 ho         1 NEU       0.438000
     25 H26         -2.6680    -1.0570    -0.5780 h1         1 NEU       0.096700
     26 H22         -3.2940     1.5200    -1.5220 ho         1 NEU       0.397000
     27 H281        -4.6710    -0.7130     0.8610 h1         1 NEU       0.029200
     28 H282        -4.9460     0.8550     0.0990 h1         1 NEU       0.029200
     29 H24         -6.1290    -0.8880    -0.9150 ho         1 NEU       0.404000
@<TRIPOS>BOND
     1     1     2 1   
     2     1    10 1   
     3     1    19 1   
     4     2     3 1   
     5     2    18 2   
     6     3     4 ar  
     7     3     8 ar  
     8     4     5 ar  
     9     5     6 ar  
    10     5    12 1   
    11     6     7 ar  
    12     6    20 1   
    13     7     8 ar  
    14     8     9 1   
    15     9    10 2   
    16    10    11 1   
    17    11    21 1   
    18    11    22 1   
    19    12    13 1   
    20    12    14 1   
    21    12    23 1   
    22    13    24 1   
    23    14    15 1   
    24    14    16 1   
    25    14    25 1   
    26    15    26 1   
    27    16    17 1   
    28    16    27 1   
    29    16    28 1   
    30    17    29 1   
@<TRIPOS>SUBSTRUCTURE
     1 NEU         1 TEMP              0 ****  ****    0 ROOT
