@<TRIPOS>MOLECULE
NEW
   24    25     1     0     0
SMALL
No Charge or Current Charge


@<TRIPOS>ATOM
      1 O2           4.9800     0.1230     0.0020 oh         1 NEW      -0.505100
      2 C9           3.6080     0.1090     0.0200 ca         1 NEW       0.168100
      3 C8           2.8770     1.2500    -0.3760 ca         1 NEW       0.049750
      4 Cl2          3.7010     2.7180    -0.9070 cl         1 NEW      -0.181000
      5 C10          2.9130    -1.0460     0.4340 ca         1 NEW       0.049750
      6 Cl4          3.7920    -2.4900     0.9400 cl         1 NEW      -0.181000
      7 C11          1.5080    -1.0600     0.4520 ca         1 NEW      -0.051000
      8 C12          0.7580     0.0770     0.0590 cp         1 NEW      -0.056000
      9 C7           1.4710     1.2300    -0.3550 ca         1 NEW      -0.051000
     10 C3          -0.7390     0.0600     0.0790 cp         1 NEW      -0.056000
     11 C2          -1.4790     1.2130     0.4420 ca         1 NEW      -0.051000
     12 C4          -1.4630    -1.1100    -0.2640 ca         1 NEW      -0.051000
     13 C5          -2.8680    -1.1280    -0.2460 ca         1 NEW       0.049750
     14 Cl5         -3.7120    -2.6130    -0.6890 cl         1 NEW      -0.181000
     15 C6          -3.5890     0.0280     0.1180 ca         1 NEW       0.168100
     16 O1          -4.9620     0.0100     0.1360 oh         1 NEW      -0.505100
     17 C1          -2.8850     1.2010     0.4630 ca         1 NEW       0.049750
     18 Cl1         -3.7430     2.6710     0.9300 cl         1 NEW      -0.181000
     19 HO2          5.2970    -0.7550     0.3090 ho         1 NEW       0.484000
     20 H11          0.9980    -1.9580     0.7890 ha         1 NEW       0.136750
     21 H7           0.9310     2.1160    -0.6770 ha         1 NEW       0.136750
     22 H2          -0.9600     2.1250     0.7260 ha         1 NEW       0.136750
     23 H4          -0.9310    -2.0100    -0.5620 ha         1 NEW       0.136750
     24 HO1         -5.2580    -0.8870    -0.1330 ho         1 NEW       0.484000
@<TRIPOS>BOND
     1     1     2 1   
     2     1    19 1   
     3     2     3 ar  
     4     2     5 ar  
     5     3     4 1   
     6     3     9 ar  
     7     5     6 1   
     8     5     7 ar  
     9     7     8 ar  
    10     7    20 1   
    11     8     9 ar  
    12     8    10 1   
    13     9    21 1   
    14    10    11 ar  
    15    10    12 ar  
    16    11    17 ar  
    17    11    22 1   
    18    12    13 ar  
    19    12    23 1   
    20    13    14 1   
    21    13    15 ar  
    22    15    16 1   
    23    15    17 ar  
    24    16    24 1   
    25    17    18 1   
@<TRIPOS>SUBSTRUCTURE
     1 NEW         1 TEMP              0 ****  ****    0 ROOT
