@<TRIPOS>MOLECULE
NEW
   24    25     1     0     0
SMALL
abcg2


@<TRIPOS>ATOM
      1 O2           4.9000     0.1740    -0.0140 oh         1 NEW      -0.505100
      2 C9           3.5710     0.0960     0.0260 ca         1 NEW       0.168100
      3 C8           2.8210     1.2040    -0.3720 ca         1 NEW       0.049750
      4 CL2          3.6640     2.6110    -0.9050 cl         1 NEW      -0.181000
      5 C10          2.8580    -1.0280     0.4440 ca         1 NEW       0.049750
      6 CL4          3.7540    -2.4150     0.9660 cl         1 NEW      -0.181000
      7 C11          1.4770    -1.0550     0.4660 ca         1 NEW      -0.051000
      8 C12          0.7470     0.0580     0.0620 cp         1 NEW      -0.056000
      9 C7           1.4400     1.1910    -0.3580 ca         1 NEW      -0.051000
     10 C3          -0.7280     0.0420     0.0790 cp         1 NEW      -0.056000
     11 C2          -1.4480     1.1750     0.4510 ca         1 NEW      -0.051000
     12 C4          -1.4310    -1.1050    -0.2770 ca         1 NEW      -0.051000
     13 C5          -2.8130    -1.1090    -0.2570 ca         1 NEW       0.049750
     14 CL5         -3.6760    -2.5390    -0.7150 cl         1 NEW      -0.181000
     15 C6          -3.5520     0.0150     0.1110 ca         1 NEW       0.168100
     16 O1          -4.8830     0.0640     0.1450 oh         1 NEW      -0.505100
     17 C1          -2.8290     1.1560     0.4610 ca         1 NEW       0.049750
     18 CL1         -3.7050     2.5660     0.9310 cl         1 NEW      -0.181000
     19 HO2          5.3090    -0.6500     0.2830 ho         1 NEW       0.484000
     20 H11          0.9730    -1.9440     0.8210 ha         1 NEW       0.136750
     21 H7           0.9040     2.0670    -0.7000 ha         1 NEW       0.136750
     22 H2          -0.9330     2.0760     0.7550 ha         1 NEW       0.136750
     23 H4          -0.9060    -1.9970    -0.5930 ha         1 NEW       0.136750
     24 HO1         -5.2710    -0.7790    -0.1220 ho         1 NEW       0.484000
@<TRIPOS>BOND
     1     1     2 1   
     2     1    19 1   
     3     2     3 ar  
     4     2     5 ar  
     5     3     4 1   
     6     3     9 ar  
     7     5     6 1   
     8     5     7 ar  
     9     7     8 ar  
    10     7    20 1   
    11     8     9 ar  
    12     8    10 1   
    13     9    21 1   
    14    10    11 ar  
    15    10    12 ar  
    16    11    17 ar  
    17    11    22 1   
    18    12    13 ar  
    19    12    23 1   
    20    13    14 1   
    21    13    15 ar  
    22    15    16 1   
    23    15    17 ar  
    24    16    24 1   
    25    17    18 1   
@<TRIPOS>SUBSTRUCTURE
     1 NEW         1 TEMP              0 ****  ****    0 ROOT
