@<TRIPOS>MOLECULE
NEX
  100   102     1     0     0
SMALL
abcg2


@<TRIPOS>ATOM
      1 C1          29.0040    28.6030   115.9760 c6         1 NEX       0.012200
      2 C2          29.7270    27.5740   116.8590 c6         1 NEX      -0.067400
      3 C3          29.6490    27.8740   118.3440 c6         1 NEX       0.176300
      4 C4          28.1900    27.9520   118.7750 c6         1 NEX      -0.100400
      5 C5          27.3960    29.0230   118.0310 c6         1 NEX       0.239200
      6 C6          27.5900    28.8320   116.5220 c2         1 NEX      -0.154500
      7 C7          26.5640    28.8780   115.7210 c1         1 NEX      -0.020800
      8 C8          25.5300    28.9120   114.9110 ce         1 NEX      -0.198100
      9 C9          24.7190    27.7510   114.5520 ce         1 NEX      -0.055200
     10 C10         23.7020    27.9270   113.6760 cf         1 NEX      -0.180000
     11 C11         22.7740    26.9330   113.2090 cf         1 NEX      -0.171000
     12 C12         21.7970    27.2110   112.3180 ce         1 NEX      -0.173000
     13 C13         20.8130    26.2750   111.8220 ce         1 NEX      -0.064200
     14 C14         19.8960    26.7270   110.9250 cf         1 NEX      -0.175000
     15 C15         18.8150    25.9910   110.3400 cf         1 NEX      -0.173000
     16 C16         28.9510    28.0490   114.5520 c3         1 NEX      -0.085100
     17 C17         29.7850    29.9250   115.9320 c3         1 NEX      -0.085100
     18 C18         25.9280    28.9380   118.4360 c3         1 NEX      -0.118100
     19 C19         25.0730    26.4480   115.1980 c3         1 NEX      -0.054900
     20 C20         20.8580    24.8640   112.3270 c3         1 NEX      -0.055900
     21 O3          30.3290    26.8320   119.0210 oh         1 NEX      -0.665000
     22 O4          27.9300    30.2750   118.4340 oh         1 NEX      -0.659000
     23 C21          9.5190    28.0250   102.9110 c6         1 NEX      -0.019000
     24 C22          9.0210    28.6400   101.5930 c6         1 NEX      -0.071400
     25 C23         10.1220    29.0300   100.6290 c6         1 NEX       0.175300
     26 C24         10.8640    27.7710   100.2010 c6         1 NEX      -0.103400
     27 C25         11.3660    26.9550   101.3650 cx         1 NEX       0.120000
     28 C26         10.7190    27.0790   102.6890 cx         1 NEX       0.147200
     29 C27         10.8140    25.9460   103.6450 c2         1 NEX      -0.209200
     30 C28         11.8040    25.7900   104.5310 ce         1 NEX      -0.157000
     31 C29         11.9130    24.6690   105.4520 ce         1 NEX      -0.072200
     32 C30         12.9080    24.5740   106.3680 cf         1 NEX      -0.171000
     33 C31         13.9550    25.5250   106.6390 cf         1 NEX      -0.172000
     34 C32         14.9090    25.2960   107.5680 ce         1 NEX      -0.173000
     35 C33         15.9720    26.2030   107.9380 ce         1 NEX      -0.061200
     36 C34         16.8590    25.7900   108.8820 ce         1 NEX      -0.178000
     37 C35         17.9610    26.5230   109.4310 ce         1 NEX      -0.169000
     38 C37          9.9500    29.1240   103.8870 c3         1 NEX      -0.083100
     39 C38         12.1040    25.7060   100.9600 c3         1 NEX      -0.079100
     40 C39         10.8840    23.5810   105.3630 c3         1 NEX      -0.056900
     41 C40         16.0340    27.5400   107.2630 c3         1 NEX      -0.056900
     42 O23          9.5180    29.6750    99.5250 oh         1 NEX      -0.661000
     43 O24         11.9530    27.7240   102.4090 op         1 NEX      -0.440000
     44 H21         29.2840    26.5850   116.6870 hc         1 NEX       0.054200
     45 H22         30.7720    27.5130   116.5410 hc         1 NEX       0.054200
     46 H3          30.1390    28.8340   118.5530 h1         1 NEX       0.047700
     47 H41         27.7200    26.9810   118.5900 hc         1 NEX       0.054700
     48 H42         28.1160    28.1450   119.8510 hc         1 NEX       0.054700
     49 H8          25.2450    29.8670   114.4760 ha         1 NEX       0.188000
     50 H10         23.5550    28.9290   113.2790 ha         1 NEX       0.168000
     51 H11         22.8660    25.9240   113.5960 ha         1 NEX       0.174000
     52 H12         21.7240    28.2270   111.9380 ha         1 NEX       0.170000
     53 H14         19.9740    27.7680   110.6190 ha         1 NEX       0.169000
     54 H15         18.6590    24.9600   110.6420 ha         1 NEX       0.172000
     55 H161        28.5010    28.7610   113.8590 hc         1 NEX       0.038533
     56 H162        29.9630    27.8370   114.1990 hc         1 NEX       0.038533
     57 H163        28.3770    27.1230   114.5030 hc         1 NEX       0.038533
     58 H171        29.2640    30.6530   115.3080 hc         1 NEX       0.038533
     59 H172        29.9330    30.3730   116.9110 hc         1 NEX       0.038533
     60 H173        30.7690    29.7550   115.4890 hc         1 NEX       0.038533
     61 H181        25.3320    29.7160   117.9560 hc         1 NEX       0.045367
     62 H182        25.4940    27.9740   118.1690 hc         1 NEX       0.045367
     63 H183        25.8390    29.0610   119.5160 hc         1 NEX       0.045367
     64 H191        24.4600    25.6190   114.8540 hc         1 NEX       0.044033
     65 H192        26.1180    26.1940   115.0050 hc         1 NEX       0.044033
     66 H193        24.9660    26.5170   116.2830 hc         1 NEX       0.044033
     67 H201        20.0830    24.2350   111.8990 hc         1 NEX       0.042700
     68 H202        21.8200    24.4020   112.0960 hc         1 NEX       0.042700
     69 H203        20.7460    24.8320   113.4120 hc         1 NEX       0.042700
     70 HO3         30.3250    27.0340   119.9620 ho         1 NEX       0.442000
     71 HO4         27.4700    30.9680   117.9480 ho         1 NEX       0.446000
     72 H221         8.3700    27.9190   101.0840 hc         1 NEX       0.056200
     73 H222         8.4000    29.5090   101.8320 hc         1 NEX       0.056200
     74 H23         10.8240    29.7150   101.1230 h1         1 NEX       0.048700
     75 H241        10.1890    27.1480    99.6040 hc         1 NEX       0.055700
     76 H242        11.7130    28.0230    99.5550 hc         1 NEX       0.055700
     77 H27         10.0080    25.2240   103.5890 ha         1 NEX       0.180000
     78 H28         12.5910    26.5350   104.5550 ha         1 NEX       0.188000
     79 H30         12.9200    23.6840   106.9910 ha         1 NEX       0.168000
     80 H31         13.9650    26.4590   106.0880 ha         1 NEX       0.178000
     81 H32         14.8830    24.3500   108.1040 ha         1 NEX       0.169000
     82 H34         16.7210    24.7880   109.2820 ha         1 NEX       0.168000
     83 H35         18.1190    27.5500   109.1180 ha         1 NEX       0.172000
     84 H361         8.5520    26.9220   104.5380 hc         1 NEX       0.038700
     85 H362         7.4750    27.9400   103.5890 hc         1 NEX       0.038700
     86 H363         8.0400    26.4120   102.9260 hc         1 NEX       0.038700
     87 H371        10.3450    28.7010   104.8130 hc         1 NEX       0.038700
     88 H372        10.7120    29.7770   103.4630 hc         1 NEX       0.038700
     89 H373         9.0910    29.7450   104.1510 hc         1 NEX       0.038700
     90 H381        12.4860    25.1520   101.8140 hc         1 NEX       0.049367
     91 H382        11.4410    25.0480   100.3970 hc         1 NEX       0.049367
     92 H383        12.9440    25.9600   100.3110 hc         1 NEX       0.049367
     93 H391        11.0900    22.7860   106.0770 hc         1 NEX       0.041700
     94 H392         9.8820    23.9650   105.5690 hc         1 NEX       0.041700
     95 H393        10.8530    23.1400   104.3650 hc         1 NEX       0.041700
     96 H401        16.8560    28.1560   107.6190 hc         1 NEX       0.043700
     97 H402        16.1570    27.4240   106.1840 hc         1 NEX       0.043700
     98 H403        15.1100    28.1010   107.4160 hc         1 NEX       0.043700
     99 H1          10.2110    29.9180    98.9020 ho         1 NEX       0.443000
    100 C36          8.3360    27.2720   103.5280 c3         1 NEX      -0.083100
@<TRIPOS>BOND
     1     1     2 1   
     2     1     6 1   
     3     1    16 1   
     4     1    17 1   
     5     2     3 1   
     6     2    44 1   
     7     2    45 1   
     8     3     4 1   
     9     3    21 1   
    10     3    46 1   
    11     4     5 1   
    12     4    47 1   
    13     4    48 1   
    14     5     6 1   
    15     5    18 1   
    16     5    22 1   
    17     6     7 2   
    18     7     8 2   
    19     8     9 1   
    20     8    49 1   
    21     9    10 2   
    22     9    19 1   
    23    10    11 1   
    24    10    50 1   
    25    11    12 2   
    26    11    51 1   
    27    12    13 1   
    28    12    52 1   
    29    13    14 2   
    30    13    20 1   
    31    14    15 1   
    32    14    53 1   
    33    15    37 2   
    34    15    54 1   
    35    16    55 1   
    36    16    56 1   
    37    16    57 1   
    38    17    58 1   
    39    17    59 1   
    40    17    60 1   
    41    18    61 1   
    42    18    62 1   
    43    18    63 1   
    44    19    64 1   
    45    19    65 1   
    46    19    66 1   
    47    20    67 1   
    48    20    68 1   
    49    20    69 1   
    50    21    70 1   
    51    22    71 1   
    52    23    24 1   
    53    23    28 1   
    54    23    38 1   
    55    23   100 1   
    56    24    25 1   
    57    24    72 1   
    58    24    73 1   
    59    25    26 1   
    60    25    42 1   
    61    25    74 1   
    62    26    27 1   
    63    26    75 1   
    64    26    76 1   
    65    27    28 1   
    66    27    39 1   
    67    27    43 1   
    68    28    29 1   
    69    28    43 1   
    70    29    30 2   
    71    29    77 1   
    72    30    31 1   
    73    30    78 1   
    74    31    32 2   
    75    31    40 1   
    76    32    33 1   
    77    32    79 1   
    78    33    34 2   
    79    33    80 1   
    80    34    35 1   
    81    34    81 1   
    82    35    36 2   
    83    35    41 1   
    84    36    37 1   
    85    36    82 1   
    86    37    83 1   
    87    38    87 1   
    88    38    88 1   
    89    38    89 1   
    90    39    90 1   
    91    39    91 1   
    92    39    92 1   
    93    40    93 1   
    94    40    94 1   
    95    40    95 1   
    96    41    96 1   
    97    41    97 1   
    98    41    98 1   
    99    42    99 1   
   100    84   100 1   
   101    85   100 1   
   102    86   100 1   
@<TRIPOS>SUBSTRUCTURE
     1 NEX         1 TEMP              0 ****  ****    0 ROOT
