@<TRIPOS>MOLECULE
NEX
  100   102     1     0     0
SMALL
No Charge or Current Charge


@<TRIPOS>ATOM
      1 C1          29.1170    28.8480   116.4060 c6         1 NEX       0.012200
      2 C2          29.7350    28.0700   117.6060 c6         1 NEX      -0.067400
      3 C3          29.2570    28.5830   118.9840 c6         1 NEX       0.176300
      4 C4          27.7230    28.4410   119.1030 c6         1 NEX      -0.100400
      5 C5          26.9610    29.2660   118.0320 c6         1 NEX       0.239200
      6 C6          27.5390    28.9050   116.5850 c2         1 NEX      -0.154500
      7 C7          26.7370    28.8520   115.5340 c1         1 NEX      -0.020800
      8 C8          25.8670    28.7590   114.4190 ce         1 NEX      -0.198100
      9 C9          24.9190    27.6430   114.2130 ce         1 NEX      -0.055200
     10 C10         23.9920    27.7210   113.2140 cf         1 NEX      -0.180000
     11 C11         22.9820    26.7220   112.8700 cf         1 NEX      -0.171000
     12 C12         22.1150    26.8460   111.8240 ce         1 NEX      -0.173000
     13 C13         21.0600    25.8940   111.4190 ce         1 NEX      -0.064200
     14 C14         20.1140    26.2750   110.5100 cf         1 NEX      -0.175000
     15 C15         19.0050    25.4740   109.9950 cf         1 NEX      -0.173000
     16 C16         29.5750    28.1010   115.0800 c3         1 NEX      -0.085100
     17 C17         29.7670    30.2930   116.3070 c3         1 NEX      -0.085100
     18 C18         25.4200    28.9500   118.1990 c3         1 NEX      -0.118100
     19 C19         25.0550    26.4090   115.1070 c3         1 NEX      -0.054900
     20 C20         21.1300    24.4850   112.0020 c3         1 NEX      -0.055900
     21 O3          29.8920    27.8250   120.0210 oh         1 NEX      -0.665000
     22 O4          27.1000    30.6750   118.3800 oh         1 NEX      -0.659000
     23 C21         10.4480    28.4760   103.3670 c6         1 NEX      -0.019000
     24 C22          9.5600    29.4220   102.4970 c6         1 NEX      -0.071400
     25 C23          9.9570    29.4210   101.0020 c6         1 NEX       0.175300
     26 C24          9.6530    28.0410   100.3770 c6         1 NEX      -0.103400
     27 C25         10.2530    26.8550   101.1540 cx         1 NEX       0.120000
     28 C26         10.5770    27.0420   102.6400 cx         1 NEX       0.147200
     29 C27         10.5510    25.8620   103.5500 c2         1 NEX      -0.209200
     30 C28         11.6310    25.4790   104.2670 ce         1 NEX      -0.157000
     31 C29         11.6890    24.3340   105.2000 ce         1 NEX      -0.072200
     32 C30         12.7110    24.1330   106.0850 cf         1 NEX      -0.171000
     33 C31         13.8700    24.9920   106.3200 cf         1 NEX      -0.172000
     34 C32         14.8820    24.6840   107.1800 ce         1 NEX      -0.173000
     35 C33         16.0680    25.5070   107.4790 ce         1 NEX      -0.061200
     36 C34         17.0090    25.1000   108.5360 ce         1 NEX      -0.178000
     37 C35         18.1330    25.9000   109.0430 ce         1 NEX      -0.169000
     38 C37         11.8540    29.1750   103.6180 c3         1 NEX      -0.083100
     39 C38          9.9110    25.4780   100.5350 c3         1 NEX      -0.079100
     40 C39         10.5550    23.3210   105.1020 c3         1 NEX      -0.056900
     41 C40         16.4400    26.6580   106.5520 c3         1 NEX      -0.056900
     42 O23          9.2220    30.4340   100.3070 oh         1 NEX      -0.661000
     43 O24         11.6090    26.9980   101.6180 op         1 NEX      -0.440000
     44 H21         29.4790    27.0040   117.5180 hc         1 NEX       0.054200
     45 H22         30.8310    28.1200   117.5580 hc         1 NEX       0.054200
     46 H3          29.5290    29.6430   119.0880 h1         1 NEX       0.047700
     47 H41         27.4510    27.3810   119.0080 hc         1 NEX       0.054700
     48 H42         27.4010    28.7510   120.1070 hc         1 NEX       0.054700
     49 H8          25.8270    29.5930   113.7170 ha         1 NEX       0.188000
     50 H10         23.9850    28.6280   112.6050 ha         1 NEX       0.168000
     51 H11         22.9120    25.8410   113.5080 ha         1 NEX       0.174000
     52 H12         22.1860    27.7540   111.2230 ha         1 NEX       0.170000
     53 H14         20.1710    27.2960   110.1270 ha         1 NEX       0.169000
     54 H15         18.8580    24.4740   110.4070 ha         1 NEX       0.172000
     55 H161        29.2410    28.6310   114.1800 hc         1 NEX       0.038533
     56 H162        30.6670    28.0150   115.0220 hc         1 NEX       0.038533
     57 H163        29.1630    27.0850   115.0350 hc         1 NEX       0.038533
     58 H171        29.3740    30.8410   115.4420 hc         1 NEX       0.038533
     59 H172        29.5570    30.9000   117.1940 hc         1 NEX       0.038533
     60 H173        30.8570    30.2390   116.1970 hc         1 NEX       0.038533
     61 H181        24.8060    29.5470   117.5130 hc         1 NEX       0.045367
     62 H182        25.2090    27.8940   117.9950 hc         1 NEX       0.045367
     63 H183        25.0730    29.1630   119.2180 hc         1 NEX       0.045367
     64 H191        24.8720    25.4830   114.5500 hc         1 NEX       0.044033
     65 H192        26.0560    26.2980   115.5380 hc         1 NEX       0.044033
     66 H193        24.3390    26.4450   115.9360 hc         1 NEX       0.044033
     67 H201        20.7190    23.7310   111.3220 hc         1 NEX       0.042700
     68 H202        22.1620    24.1710   112.1950 hc         1 NEX       0.042700
     69 H203        20.5760    24.4200   112.9470 hc         1 NEX       0.042700
     70 HO3         29.6310    28.2390   120.8730 ho         1 NEX       0.442000
     71 HO4         26.4020    31.1590   117.8880 ho         1 NEX       0.446000
     72 H221         8.5060    29.1240   102.5830 hc         1 NEX       0.056200
     73 H222         9.6120    30.4470   102.8900 hc         1 NEX       0.056200
     74 H23         11.0350    29.6240   100.9140 h1         1 NEX       0.048700
     75 H241         8.5640    27.8990   100.3240 hc         1 NEX       0.055700
     76 H242        10.0180    28.0120    99.3410 hc         1 NEX       0.055700
     77 H27          9.5950    25.3430   103.6150 ha         1 NEX       0.180000
     78 H28         12.5390    26.0640   104.1420 ha         1 NEX       0.188000
     79 H30         12.6630    23.2350   106.7050 ha         1 NEX       0.168000
     80 H31         13.9100    25.9450   105.7940 ha         1 NEX       0.178000
     81 H32         14.8140    23.7420   107.7250 ha         1 NEX       0.169000
     82 H34         16.8180    24.1450   109.0280 ha         1 NEX       0.168000
     83 H35         18.2640    26.9020   108.6320 ha         1 NEX       0.172000
     84 H361        10.3920    27.8340   105.5110 hc         1 NEX       0.038700
     85 H362         9.6360    29.4060   105.2340 hc         1 NEX       0.038700
     86 H363         8.7930    27.9260   104.7610 hc         1 NEX       0.038700
     87 H371        12.4870    28.5650   104.2730 hc         1 NEX       0.038700
     88 H372        12.4100    29.3280   102.6860 hc         1 NEX       0.038700
     89 H373        11.7400    30.1560   104.0940 hc         1 NEX       0.038700
     90 H381        10.5670    24.6910   100.9250 hc         1 NEX       0.049367
     91 H382         8.8760    25.1980   100.7630 hc         1 NEX       0.049367
     92 H383        10.0230    25.4960    99.4450 hc         1 NEX       0.049367
     93 H391        10.7870    22.3900   105.6340 hc         1 NEX       0.041700
     94 H392         9.6300    23.7210   105.5330 hc         1 NEX       0.041700
     95 H393        10.3510    23.0480   104.0590 hc         1 NEX       0.041700
     96 H401        17.5250    26.7920   106.4790 hc         1 NEX       0.043700
     97 H402        16.0910    26.4900   105.5270 hc         1 NEX       0.043700
     98 H403        16.0080    27.6030   106.9030 hc         1 NEX       0.043700
     99 H1           9.5590    30.4460    99.3840 ho         1 NEX       0.443000
    100 C36          9.7780    28.4070   104.8050 c3         1 NEX      -0.083100
@<TRIPOS>BOND
     1     1     2 1   
     2     1     6 1   
     3     1    16 1   
     4     1    17 1   
     5     2     3 1   
     6     2    44 1   
     7     2    45 1   
     8     3     4 1   
     9     3    21 1   
    10     3    46 1   
    11     4     5 1   
    12     4    47 1   
    13     4    48 1   
    14     5     6 1   
    15     5    18 1   
    16     5    22 1   
    17     6     7 2   
    18     7     8 2   
    19     8     9 1   
    20     8    49 1   
    21     9    10 2   
    22     9    19 1   
    23    10    11 1   
    24    10    50 1   
    25    11    12 2   
    26    11    51 1   
    27    12    13 1   
    28    12    52 1   
    29    13    14 2   
    30    13    20 1   
    31    14    15 1   
    32    14    53 1   
    33    15    37 2   
    34    15    54 1   
    35    16    55 1   
    36    16    56 1   
    37    16    57 1   
    38    17    58 1   
    39    17    59 1   
    40    17    60 1   
    41    18    61 1   
    42    18    62 1   
    43    18    63 1   
    44    19    64 1   
    45    19    65 1   
    46    19    66 1   
    47    20    67 1   
    48    20    68 1   
    49    20    69 1   
    50    21    70 1   
    51    22    71 1   
    52    23    24 1   
    53    23    28 1   
    54    23    38 1   
    55    23   100 1   
    56    24    25 1   
    57    24    72 1   
    58    24    73 1   
    59    25    26 1   
    60    25    42 1   
    61    25    74 1   
    62    26    27 1   
    63    26    75 1   
    64    26    76 1   
    65    27    28 1   
    66    27    39 1   
    67    27    43 1   
    68    28    29 1   
    69    28    43 1   
    70    29    30 2   
    71    29    77 1   
    72    30    31 1   
    73    30    78 1   
    74    31    32 2   
    75    31    40 1   
    76    32    33 1   
    77    32    79 1   
    78    33    34 2   
    79    33    80 1   
    80    34    35 1   
    81    34    81 1   
    82    35    36 2   
    83    35    41 1   
    84    36    37 1   
    85    36    82 1   
    86    37    83 1   
    87    38    87 1   
    88    38    88 1   
    89    38    89 1   
    90    39    90 1   
    91    39    91 1   
    92    39    92 1   
    93    40    93 1   
    94    40    94 1   
    95    40    95 1   
    96    41    96 1   
    97    41    97 1   
    98    41    98 1   
    99    42    99 1   
   100    84   100 1   
   101    85   100 1   
   102    86   100 1   
@<TRIPOS>SUBSTRUCTURE
     1 NEX         1 TEMP              0 ****  ****    0 ROOT
