@<TRIPOS>MOLECULE
NEZ
   41    44     1     0     0
SMALL
abcg2


@<TRIPOS>ATOM
      1 C14          0.5550    -0.6170     0.7200 c3         1 NEZ      -0.012100
      2 C5           0.7120    -0.3780    -0.7490 ca         1 NEZ      -0.027300
      3 C4          -0.4010    -0.2080    -1.5870 ca         1 NEZ       0.198400
      4 N10         -1.6490    -0.2940    -1.0210 nc         1 NEZ      -0.701100
      5 C9          -2.6810    -0.1420    -1.7790 cd         1 NEZ       0.706800
      6 N23         -3.9300    -0.2690    -1.2800 nv         1 NEZ      -1.036200
      7 N8          -2.5940     0.1070    -3.1240 ns         1 NEZ      -0.453400
      8 C7          -1.4070     0.2200    -3.8070 c          1 NEZ       0.590600
      9 O22         -1.3970     0.4440    -5.0060 o          1 NEZ      -0.545000
     10 C3          -0.2240     0.0500    -2.9730 ca         1 NEZ      -0.203600
     11 C2           1.0370     0.1510    -3.5580 ca         1 NEZ      -0.034000
     12 C1           2.1140    -0.0110    -2.7190 ca         1 NEZ      -0.110200
     13 N11          3.4710     0.0220    -2.9220 na         1 NEZ      -0.320600
     14 C12          4.0550    -0.2020    -1.7260 cc         1 NEZ       0.435700
     15 N13          3.2060    -0.3820    -0.7520 nd         1 NEZ      -0.585100
     16 C6           1.9670    -0.2690    -1.3380 ca         1 NEZ       0.110400
     17 C15          0.3110     0.6930     1.4860 c3         1 NEZ      -0.025100
     18 C16          0.0590     0.4530     2.9470 ca         1 NEZ      -0.076300
     19 C17          1.0800     0.5570     3.8870 ca         1 NEZ      -0.104500
     20 C18          0.8440     0.3020     5.2320 ca         1 NEZ      -0.112000
     21 C19         -0.4210    -0.0670     5.6830 ca         1 NEZ      -0.081300
     22 C24         -0.6850    -0.3060     7.1420 c3         1 NEZ      -0.044800
     23 C20         -1.4410    -0.1790     4.7390 ca         1 NEZ      -0.112000
     24 C21         -1.2050     0.0770     3.3970 ca         1 NEZ      -0.104500
     25 H141         1.4520    -1.0990     1.1130 hc         1 NEZ       0.063200
     26 H142        -0.2820    -1.2940     0.8970 hc         1 NEZ       0.063200
     27 H231        -4.0080    -0.2530    -0.2770 hn         1 NEZ       0.488500
     28 H232        -4.7080     0.1380    -1.7730 hn         1 NEZ       0.488500
     29 HN8         -3.4410     0.2140    -3.6670 hn         1 NEZ       0.324500
     30 H2           1.1480     0.3460    -4.6160 ha         1 NEZ       0.139000
     31 H11          3.9520     0.1880    -3.7920 hn         1 NEZ       0.361000
     32 H12          5.1300    -0.2240    -1.6230 h5         1 NEZ       0.061800
     33 H151        -0.5460     1.2050     1.0430 hc         1 NEZ       0.050200
     34 H152         1.1750     1.3490     1.3580 hc         1 NEZ       0.050200
     35 H17          2.0750     0.8450     3.5660 ha         1 NEZ       0.111500
     36 H18          1.6590     0.3920     5.9410 ha         1 NEZ       0.107000
     37 H241        -0.9960     0.6160     7.6390 hc         1 NEZ       0.039367
     38 H242        -1.4800    -1.0370     7.2920 hc         1 NEZ       0.039367
     39 H243         0.2050    -0.6650     7.6570 hc         1 NEZ       0.039367
     40 H20         -2.4350    -0.4680     5.0590 ha         1 NEZ       0.107000
     41 H21         -2.0170    -0.0140     2.6840 ha         1 NEZ       0.111500
@<TRIPOS>BOND
     1     1     2 1   
     2     1    17 1   
     3     1    25 1   
     4     1    26 1   
     5     2     3 ar  
     6     2    16 ar  
     7     3     4 1   
     8     3    10 ar  
     9     4     5 2   
    10     5     6 1   
    11     5     7 1   
    12     6    27 1   
    13     6    28 1   
    14     7     8 1   
    15     7    29 1   
    16     8     9 2   
    17     8    10 1   
    18    10    11 ar  
    19    11    12 ar  
    20    11    30 1   
    21    12    13 1   
    22    12    16 ar  
    23    13    14 1   
    24    13    31 1   
    25    14    15 2   
    26    14    32 1   
    27    15    16 1   
    28    17    18 1   
    29    17    33 1   
    30    17    34 1   
    31    18    19 ar  
    32    18    24 ar  
    33    19    20 ar  
    34    19    35 1   
    35    20    21 ar  
    36    20    36 1   
    37    21    22 1   
    38    21    23 ar  
    39    22    37 1   
    40    22    38 1   
    41    22    39 1   
    42    23    24 ar  
    43    23    40 1   
    44    24    41 1   
@<TRIPOS>SUBSTRUCTURE
     1 NEZ         1 TEMP              0 ****  ****    0 ROOT
