@<TRIPOS>MOLECULE
NEZ
   41    44     1     0     0
SMALL
No Charge or Current Charge


@<TRIPOS>ATOM
      1 C14          0.3960    -0.6070     0.7280 c3         1 NEZ      -0.012100
      2 C5           0.5930    -0.3480    -0.7710 ca         1 NEZ      -0.027300
      3 C4          -0.5120    -0.2280    -1.6680 ca         1 NEZ       0.198400
      4 N10         -1.8220    -0.3560    -1.1510 nc         1 NEZ      -0.701100
      5 C9          -2.7450    -0.2250    -2.0700 cd         1 NEZ       0.706800
      6 N23         -3.9830    -0.3330    -1.6200 nv         1 NEZ      -1.036200
      7 N8          -2.6050     0.0050    -3.3800 ns         1 NEZ      -0.453400
      8 C7          -1.4070     0.1420    -3.9780 c          1 NEZ       0.590600
      9 O22         -1.3040     0.3450    -5.1780 o          1 NEZ      -0.545000
     10 C3          -0.2550     0.0200    -3.0480 ca         1 NEZ      -0.203600
     11 C2           1.0650     0.1510    -3.5340 ca         1 NEZ      -0.034000
     12 C1           2.1040     0.0300    -2.6140 ca         1 NEZ      -0.110200
     13 N11          3.4500     0.1170    -2.8000 na         1 NEZ      -0.320600
     14 C12          4.0480    -0.0710    -1.5580 cc         1 NEZ       0.435700
     15 N13          3.1140    -0.2730    -0.6050 nd         1 NEZ      -0.585100
     16 C6           1.8970    -0.2070    -1.2890 ca         1 NEZ       0.110400
     17 C15          0.2140     0.6990     1.5280 c3         1 NEZ      -0.025100
     18 C16          0.0340     0.4390     3.0180 ca         1 NEZ      -0.076300
     19 C17          1.1520     0.3910     3.8710 ca         1 NEZ      -0.104500
     20 C18          0.9860     0.1470     5.2460 ca         1 NEZ      -0.112000
     21 C19         -0.3000    -0.0550     5.7810 ca         1 NEZ      -0.081300
     22 C24         -0.4800    -0.3170     7.2690 c3         1 NEZ      -0.044800
     23 C20         -1.4180    -0.0070     4.9280 ca         1 NEZ      -0.112000
     24 C21         -1.2520     0.2380     3.5540 ca         1 NEZ      -0.104500
     25 H141         1.2550    -1.1540     1.1360 hc         1 NEZ       0.063200
     26 H142        -0.4670    -1.2610     0.9020 hc         1 NEZ       0.063200
     27 H231        -4.0430    -0.3230    -0.6100 hn         1 NEZ       0.488500
     28 H232        -4.7020     0.1910    -2.1030 hn         1 NEZ       0.488500
     29 HN8         -3.4140     0.0590    -3.9750 hn         1 NEZ       0.324500
     30 H2           1.2700     0.3420    -4.5860 ha         1 NEZ       0.139000
     31 H11          3.9410     0.2870    -3.6690 hn         1 NEZ       0.361000
     32 H12          5.1220    -0.0510    -1.4180 h5         1 NEZ       0.061800
     33 H151        -0.6510     1.2450     1.1330 hc         1 NEZ       0.050200
     34 H152         1.0850     1.3450     1.3600 hc         1 NEZ       0.050200
     35 H17          2.1520     0.5420     3.4700 ha         1 NEZ       0.111500
     36 H18          1.8590     0.1140     5.8940 ha         1 NEZ       0.107000
     37 H241        -0.6130     0.6230     7.8170 hc         1 NEZ       0.039367
     38 H242        -1.3580    -0.9440     7.4610 hc         1 NEZ       0.039367
     39 H243         0.3910    -0.8320     7.6930 hc         1 NEZ       0.039367
     40 H20         -2.4170    -0.1590     5.3290 ha         1 NEZ       0.107000
     41 H21         -2.1240     0.2690     2.9040 ha         1 NEZ       0.111500
@<TRIPOS>BOND
     1     1     2 1   
     2     1    17 1   
     3     1    25 1   
     4     1    26 1   
     5     2     3 ar  
     6     2    16 ar  
     7     3     4 1   
     8     3    10 ar  
     9     4     5 2   
    10     5     6 1   
    11     5     7 1   
    12     6    27 1   
    13     6    28 1   
    14     7     8 1   
    15     7    29 1   
    16     8     9 2   
    17     8    10 1   
    18    10    11 ar  
    19    11    12 ar  
    20    11    30 1   
    21    12    13 1   
    22    12    16 ar  
    23    13    14 1   
    24    13    31 1   
    25    14    15 2   
    26    14    32 1   
    27    15    16 1   
    28    17    18 1   
    29    17    33 1   
    30    17    34 1   
    31    18    19 ar  
    32    18    24 ar  
    33    19    20 ar  
    34    19    35 1   
    35    20    21 ar  
    36    20    36 1   
    37    21    22 1   
    38    21    23 ar  
    39    22    37 1   
    40    22    38 1   
    41    22    39 1   
    42    23    24 ar  
    43    23    40 1   
    44    24    41 1   
@<TRIPOS>SUBSTRUCTURE
     1 NEZ         1 TEMP              0 ****  ****    0 ROOT
