@<TRIPOS>MOLECULE
NF0
   30    30     1     0     0
SMALL
abcg2


@<TRIPOS>ATOM
      1 CAL        111.3520    36.4150   192.9560 c3         1 NF0      -0.092100
      2 CAK        109.9440    35.8840   192.6840 c3         1 NF0      -0.073400
      3 CAJ        109.8190    35.0660   191.3960 c3         1 NF0      -0.103400
      4 CAI        110.0810    35.8910   190.1480 c3         1 NF0       0.166600
      5 OAH        109.9110    35.0930   188.9500 os         1 NF0      -0.454100
      6 CAG        108.6740    34.9840   188.4420 c          1 NF0       0.608700
      7 OAM        107.7050    35.5420   188.9210 o          1 NF0      -0.491000
      8 CAF        108.6240    34.1230   187.2370 ca         1 NF0      -0.108600
      9 CAE        109.7690    33.5140   186.7190 ca         1 NF0      -0.135500
     10 CAC        109.6630    32.7230   185.5870 ca         1 NF0       0.082100
     11 OAD        110.7160    32.0840   184.9970 oh         1 NF0      -0.535600
     12 CAB        108.4290    32.5250   184.9600 ca         1 NF0       0.117100
     13 OAA        108.3180    31.7500   183.8510 oh         1 NF0      -0.508100
     14 CAO        107.2870    33.1360   185.4860 ca         1 NF0       0.082100
     15 OAP        106.1120    32.9060   184.8360 oh         1 NF0      -0.535600
     16 CAN        107.3880    33.9310   186.6190 ca         1 NF0      -0.135500
     17 H1         111.3960    36.9210   193.9230 hc         1 NF0       0.032700
     18 H2         112.0780    35.5980   192.9720 hc         1 NF0       0.032700
     19 H3         111.6710    37.1290   192.1960 hc         1 NF0       0.032700
     20 H4         109.2360    36.7190   192.6480 hc         1 NF0       0.043200
     21 H5         109.6300    35.2530   193.5200 hc         1 NF0       0.043200
     22 H6         108.8120    34.6470   191.3300 hc         1 NF0       0.053200
     23 H7         110.5190    34.2250   191.4210 hc         1 NF0       0.053200
     24 H8         111.1130    36.2310   190.0950 h1         1 NF0       0.062700
     25 H9         109.4160    36.7520   190.0970 h1         1 NF0       0.062700
     26 H10        110.7340    33.6540   187.1870 ha         1 NF0       0.138000
     27 H11        111.5360    32.2640   185.4780 ho         1 NF0       0.471500
     28 H12        109.1960    31.4100   183.6200 ho         1 NF0       0.480000
     29 H13        105.3950    33.3730   185.2870 ho         1 NF0       0.471500
     30 H14        106.5040    34.4030   187.0250 ha         1 NF0       0.138000
@<TRIPOS>BOND
     1     1     2 1   
     2     1    17 1   
     3     1    18 1   
     4     1    19 1   
     5     2     3 1   
     6     2    20 1   
     7     2    21 1   
     8     3     4 1   
     9     3    22 1   
    10     3    23 1   
    11     4     5 1   
    12     4    24 1   
    13     4    25 1   
    14     5     6 1   
    15     6     7 2   
    16     6     8 1   
    17     8     9 ar  
    18     8    16 ar  
    19     9    10 ar  
    20     9    26 1   
    21    10    11 1   
    22    10    12 ar  
    23    11    27 1   
    24    12    13 1   
    25    12    14 ar  
    26    13    28 1   
    27    14    15 1   
    28    14    16 ar  
    29    15    29 1   
    30    16    30 1   
@<TRIPOS>SUBSTRUCTURE
     1 NF0         1 TEMP              0 ****  ****    0 ROOT
