@<TRIPOS>MOLECULE
NF0
   30    30     1     0     0
SMALL
No Charge or Current Charge


@<TRIPOS>ATOM
      1 CAL        111.3900    36.2940   193.0200 c3         1 NF0      -0.092100
      2 CAK        109.9360    35.9030   192.6830 c3         1 NF0      -0.073400
      3 CAJ        109.7720    35.1560   191.3380 c3         1 NF0      -0.103400
      4 CAI        110.1400    36.0050   190.0960 c3         1 NF0       0.166600
      5 OAH        109.9340    35.2120   188.9090 os         1 NF0      -0.454100
      6 CAG        108.6570    35.0230   188.4350 c          1 NF0       0.608700
      7 OAM        107.6690    35.5630   188.9180 o          1 NF0      -0.491000
      8 CAF        108.5870    34.1270   187.2120 ca         1 NF0      -0.108600
      9 CAE        109.7500    33.5350   186.6630 ca         1 NF0      -0.135500
     10 CAC        109.6650    32.7070   185.5310 ca         1 NF0       0.082100
     11 OAD        110.7980    32.1380   185.0080 oh         1 NF0      -0.535600
     12 CAB        108.4150    32.4560   184.9270 ca         1 NF0       0.117100
     13 OAA        108.3660    31.6430   183.8230 oh         1 NF0      -0.508100
     14 CAO        107.2450    33.0410   185.4650 ca         1 NF0       0.082100
     15 OAP        106.0170    32.8120   184.8970 oh         1 NF0      -0.535600
     16 CAN        107.3380    33.8690   186.5990 ca         1 NF0      -0.135500
     17 H1         111.4400    36.7470   194.0170 hc         1 NF0       0.032700
     18 H2         112.0420    35.4120   193.0130 hc         1 NF0       0.032700
     19 H3         111.7820    37.0220   192.3000 hc         1 NF0       0.032700
     20 H4         109.3110    36.8050   192.6790 hc         1 NF0       0.043200
     21 H5         109.5540    35.2620   193.4870 hc         1 NF0       0.043200
     22 H6         108.7310    34.8240   191.2590 hc         1 NF0       0.053200
     23 H7         110.3910    34.2510   191.3500 hc         1 NF0       0.053200
     24 H8         111.1960    36.2950   190.1630 h1         1 NF0       0.062700
     25 H9         109.5440    36.9280   190.0700 h1         1 NF0       0.062700
     26 H10        110.7220    33.7170   187.1170 ha         1 NF0       0.138000
     27 H11        111.5730    32.4150   185.5450 ho         1 NF0       0.471500
     28 H12        109.2930    31.3660   183.6480 ho         1 NF0       0.480000
     29 H13        105.3330    33.2990   185.4060 ho         1 NF0       0.471500
     30 H14        106.4360    34.3170   187.0110 ha         1 NF0       0.138000
@<TRIPOS>BOND
     1     1     2 1   
     2     1    17 1   
     3     1    18 1   
     4     1    19 1   
     5     2     3 1   
     6     2    20 1   
     7     2    21 1   
     8     3     4 1   
     9     3    22 1   
    10     3    23 1   
    11     4     5 1   
    12     4    24 1   
    13     4    25 1   
    14     5     6 1   
    15     6     7 2   
    16     6     8 1   
    17     8     9 ar  
    18     8    16 ar  
    19     9    10 ar  
    20     9    26 1   
    21    10    11 1   
    22    10    12 ar  
    23    11    27 1   
    24    12    13 1   
    25    12    14 ar  
    26    13    28 1   
    27    14    15 1   
    28    14    16 ar  
    29    15    29 1   
    30    16    30 1   
@<TRIPOS>SUBSTRUCTURE
     1 NF0         1 TEMP              0 ****  ****    0 ROOT
