@<TRIPOS>MOLECULE
NF1
   41    44     1     0     0
SMALL
bcc


@<TRIPOS>ATOM
      1 OAN          1.0140    -2.1450     0.1970 o          1 NF1      -0.597000
      2 CAM          1.7420    -1.1750     0.2300 c          1 NF1       0.733600
      3 CAE          3.1950    -1.2730     0.0130 ca         1 NF1      -0.165600
      4 CAD          3.9880    -0.1100     0.0130 ca         1 NF1       0.022000
      5 CAF          3.7760    -2.5040    -0.1910 ca         1 NF1      -0.033500
      6 CAA          5.1600    -2.6110    -0.3970 ca         1 NF1      -0.148500
      7 CAB          5.9480    -1.4900    -0.4030 ca         1 NF1      -0.073000
      8 CAC          5.3820    -0.2120    -0.2030 ca         1 NF1      -0.063000
      9 CAG          6.1580     0.9680    -0.2100 ca         1 NF1      -0.073000
     10 CAH          5.5700     2.1910    -0.0140 ca         1 NF1      -0.148500
     11 CAI          4.1870     2.2860     0.2040 ca         1 NF1      -0.033500
     12 CAJ          3.4040     1.1550     0.2200 ca         1 NF1      -0.165600
     13 CAK          1.9560     1.2660     0.4610 c          1 NF1       0.733600
     14 OAO          1.4080     2.3350     0.6370 o          1 NF1      -0.597000
     15 NAL          1.2230     0.0870     0.4880 n          1 NF1      -0.508400
     16 CAP         -0.2100     0.1910     0.7510 c3         1 NF1       0.088000
     17 CAQ         -1.0150     0.4270    -0.5210 c3         1 NF1       0.148800
     18 NAR         -2.4150     0.5580    -0.1690 n7         1 NF1      -0.823200
     19 CAS         -3.3000     0.6360    -1.3080 c3         1 NF1       0.127500
     20 CAT         -4.7090     0.4490    -0.8590 cc         1 NF1       0.393700
     21 SAX         -5.0710    -0.5150     0.5240 ss         1 NF1      -0.223800
     22 NAU         -5.7570     0.9270    -1.4380 nd         1 NF1      -0.329000
     23 NAV         -6.9130     0.5570    -0.8410 nd         1 NF1      -0.327000
     24 CAW         -6.7370    -0.1990     0.1940 cc         1 NF1       0.389700
     25 CAY         -7.8390    -0.7400     1.0290 c3         1 NF1      -0.129400
     26 H1           3.1650    -3.3970    -0.1900 ha         1 NF1       0.159000
     27 H2           5.6000    -3.5870    -0.5520 ha         1 NF1       0.143000
     28 H3           7.0160    -1.5730    -0.5620 ha         1 NF1       0.138000
     29 H4           7.2260     0.8940    -0.3730 ha         1 NF1       0.138000
     30 H5           6.1710     3.0900    -0.0250 ha         1 NF1       0.143000
     31 H6           3.7380     3.2570     0.3620 ha         1 NF1       0.159000
     32 H7          -0.5410    -0.7260     1.2320 h1         1 NF1       0.076700
     33 H8          -0.3670     1.0040     1.4560 h1         1 NF1       0.076700
     34 H9          -0.6220     1.3010    -1.0570 h1         1 NF1       0.045200
     35 H10         -0.9060    -0.4320    -1.1870 h1         1 NF1       0.045200
     36 H11         -2.5390     1.3820     0.4080 hn         1 NF1       0.364800
     37 H13         -3.2320     1.5650    -1.8890 h1         1 NF1       0.064200
     38 H14         -3.0520    -0.1800    -1.9950 h1         1 NF1       0.064200
     39 H15         -7.7270    -0.4430     2.0710 hc         1 NF1       0.061033
     40 H16         -8.7930    -0.3700     0.6610 hc         1 NF1       0.061033
     41 H17         -7.8540    -1.8300     0.9970 hc         1 NF1       0.061033
@<TRIPOS>BOND
     1     1     2 2   
     2     2     3 1   
     3     2    15 1   
     4     3     4 ar  
     5     3     5 ar  
     6     4     8 ar  
     7     4    12 ar  
     8     5     6 ar  
     9     5    26 1   
    10     6     7 ar  
    11     6    27 1   
    12     7     8 ar  
    13     7    28 1   
    14     8     9 ar  
    15     9    10 ar  
    16     9    29 1   
    17    10    11 ar  
    18    10    30 1   
    19    11    12 ar  
    20    11    31 1   
    21    12    13 1   
    22    13    14 2   
    23    13    15 1   
    24    15    16 1   
    25    16    17 1   
    26    16    32 1   
    27    16    33 1   
    28    17    18 1   
    29    17    34 1   
    30    17    35 1   
    31    18    19 1   
    32    18    36 1   
    33    19    20 1   
    34    19    37 1   
    35    19    38 1   
    36    20    21 1   
    37    20    22 2   
    38    21    24 1   
    39    22    23 1   
    40    23    24 2   
    41    24    25 1   
    42    25    39 1   
    43    25    40 1   
    44    25    41 1   
@<TRIPOS>SUBSTRUCTURE
     1 NF1         1 TEMP              0 ****  ****    0 ROOT
