@<TRIPOS>MOLECULE
NF1
   41    44     1     0     0
SMALL
No Charge or Current Charge


@<TRIPOS>ATOM
      1 OAN          1.2870    -2.1990     0.6070 o          1 NF1      -0.521500
      2 CAM          1.9430    -1.1750     0.4610 c          1 NF1       0.591100
      3 CAE          3.4090    -1.2390     0.1340 ca         1 NF1      -0.165600
      4 CAD          4.1590    -0.0600    -0.0370 ca         1 NF1       0.022000
      5 CAF          4.0470    -2.4920    -0.0060 ca         1 NF1      -0.015500
      6 CAA          5.4150    -2.5640    -0.3120 ca         1 NF1      -0.130500
      7 CAB          6.1620    -1.3890    -0.4820 ca         1 NF1      -0.055000
      8 CAC          5.5380    -0.1360    -0.3450 ca         1 NF1      -0.063000
      9 CAG          6.2890     1.0410    -0.5150 ca         1 NF1      -0.055000
     10 CAH          5.6700     2.2920    -0.3790 ca         1 NF1      -0.130500
     11 CAI          4.3020     2.3710    -0.0730 ca         1 NF1      -0.015500
     12 CAJ          3.5360     1.1960     0.1000 ca         1 NF1      -0.165600
     13 CAK          2.0720     1.2940     0.4270 c          1 NF1       0.591100
     14 OAO          1.5260     2.3840     0.5420 o          1 NF1      -0.521500
     15 NAL          1.3590     0.0960     0.5820 n          1 NF1      -0.374400
     16 CAP         -0.0880     0.1780     0.9400 c3         1 NF1       0.088000
     17 CAQ         -1.0150     0.2140    -0.2970 c3         1 NF1       0.148800
     18 NAR         -2.4370     0.3010     0.1040 n7         1 NF1      -0.878400
     19 CAS         -3.4190     0.2610    -1.0230 c3         1 NF1       0.127500
     20 CAT         -4.8700     0.3320    -0.5740 cc         1 NF1       0.393700
     21 SAX         -5.8360    -1.1080    -0.4190 ss         1 NF1      -0.223800
     22 NAU         -5.4950     1.4650    -0.2740 nd         1 NF1      -0.329000
     23 NAV         -6.8070     1.2440     0.1070 nd         1 NF1      -0.327000
     24 CAW         -7.1170    -0.0450     0.0780 cc         1 NF1       0.389700
     25 CAY         -8.4670    -0.5860     0.4440 c3         1 NF1      -0.129400
     26 H1           3.4860    -3.4160     0.1220 ha         1 NF1       0.141000
     27 H2           5.8970    -3.5340    -0.4170 ha         1 NF1       0.125000
     28 H3           7.2220    -1.4540    -0.7180 ha         1 NF1       0.120000
     29 H4           7.3500     0.9880    -0.7520 ha         1 NF1       0.120000
     30 H5           6.2500     3.2020    -0.5100 ha         1 NF1       0.125000
     31 H6           3.8400     3.3520     0.0280 ha         1 NF1       0.141000
     32 H7          -0.3680    -0.6790     1.5660 h1         1 NF1       0.076700
     33 H8          -0.2710     1.0710     1.5510 h1         1 NF1       0.076700
     34 H9          -0.7390     1.0730    -0.9230 h1         1 NF1       0.045200
     35 H10         -0.8410    -0.6960    -0.8880 h1         1 NF1       0.045200
     36 H11         -2.5770     1.1810     0.6220 hn         1 NF1       0.420000
     37 H13         -3.2400     1.0960    -1.7150 h1         1 NF1       0.064200
     38 H14         -3.2920    -0.6630    -1.6040 h1         1 NF1       0.064200
     39 H15         -8.4140    -1.1520     1.3800 hc         1 NF1       0.061033
     40 H16         -9.1960     0.2220     0.5750 hc         1 NF1       0.061033
     41 H17         -8.8410    -1.2550    -0.3400 hc         1 NF1       0.061033
@<TRIPOS>BOND
     1     1     2 2   
     2     2     3 1   
     3     2    15 1   
     4     3     4 ar  
     5     3     5 ar  
     6     4     8 ar  
     7     4    12 ar  
     8     5     6 ar  
     9     5    26 1   
    10     6     7 ar  
    11     6    27 1   
    12     7     8 ar  
    13     7    28 1   
    14     8     9 ar  
    15     9    10 ar  
    16     9    29 1   
    17    10    11 ar  
    18    10    30 1   
    19    11    12 ar  
    20    11    31 1   
    21    12    13 1   
    22    13    14 2   
    23    13    15 1   
    24    15    16 1   
    25    16    17 1   
    26    16    32 1   
    27    16    33 1   
    28    17    18 1   
    29    17    34 1   
    30    17    35 1   
    31    18    19 1   
    32    18    36 1   
    33    19    20 1   
    34    19    37 1   
    35    19    38 1   
    36    20    21 1   
    37    20    22 2   
    38    21    24 1   
    39    22    23 1   
    40    23    24 2   
    41    24    25 1   
    42    25    39 1   
    43    25    40 1   
    44    25    41 1   
@<TRIPOS>SUBSTRUCTURE
     1 NF1         1 TEMP              0 ****  ****    0 ROOT
