@<TRIPOS>MOLECULE
NF3
   17    16     1     0     0
SMALL
No Charge or Current Charge


@<TRIPOS>ATOM
      1 C          -43.2280   -22.0710    13.7270 c3         1 NF3      -0.117100
      2 O          -42.0020   -21.1910    11.8210 os         1 NF3      -0.471100
      3 C1         -42.0880   -22.3170    12.7170 c3         1 NF3       0.169600
      4 C2         -42.9230   -21.0590    10.8130 c          1 NF3       0.599300
      5 C3         -42.6760   -19.7780    10.0780 ce         1 NF3      -0.351200
      6 C4         -43.3200   -19.2020     9.0010 cf         1 NF3      -0.148200
      7 C5         -44.5000   -19.6470     8.1760 c          1 NF3       0.719200
      8 O1         -43.7920   -21.8800    10.5690 o          1 NF3      -0.471000
      9 O2         -45.0750   -20.6950     8.4140 o          1 NF3      -0.711000
     10 O3         -44.8400   -18.9030     7.2680 o          1 NF3      -0.711000
     11 H1         -43.2550   -22.8790    14.4670 hc         1 NF3       0.039033
     12 H2         -43.0730   -21.1260    14.2600 hc         1 NF3       0.039033
     13 H3         -44.2040   -22.0370    13.2300 hc         1 NF3       0.039033
     14 H4         -42.2550   -23.2550    12.1700 h1         1 NF3       0.040700
     15 H5         -41.1480   -22.4200    13.2740 h1         1 NF3       0.040700
     16 H6         -41.8340   -19.2180    10.4820 ha         1 NF3       0.153000
     17 H7         -42.9170   -18.2470     8.6670 ha         1 NF3       0.141000
@<TRIPOS>BOND
     1     1     3 1   
     2     1    11 1   
     3     1    12 1   
     4     1    13 1   
     5     2     3 1   
     6     2     4 1   
     7     3    14 1   
     8     3    15 1   
     9     4     5 1   
    10     4     8 2   
    11     5     6 2   
    12     5    16 1   
    13     6     7 1   
    14     6    17 1   
    15     7     9 1   
    16     7    10 1   
@<TRIPOS>SUBSTRUCTURE
     1 NF3         1 TEMP              0 ****  ****    0 ROOT
