@<TRIPOS>MOLECULE
NF3
   17    16     1     0     0
SMALL
abcg2


@<TRIPOS>ATOM
      1 C          -43.2600   -22.2370    13.5890 c3         1 NF3      -0.117100
      2 O          -42.0320   -21.0470    11.8370 os         1 NF3      -0.471100
      3 C1         -42.1270   -22.2640    12.5860 c3         1 NF3       0.169600
      4 C2         -42.8390   -20.8790    10.7870 c          1 NF3       0.599300
      5 C3         -42.6020   -19.5790    10.1450 ce         1 NF3      -0.351200
      6 C4         -43.3400   -19.1290     9.1260 cf         1 NF3      -0.148200
      7 C5         -44.5200   -19.7900     8.4420 c          1 NF3       0.719200
      8 O1         -43.6450   -21.7050    10.4270 o          1 NF3      -0.471000
      9 O2         -45.6300   -19.5480     8.9420 o          1 NF3      -0.711000
     10 O3         -44.2480   -20.4290     7.4130 o          1 NF3      -0.711000
     11 H1         -43.2210   -23.1420    14.1960 hc         1 NF3       0.039033
     12 H2         -43.1740   -21.3820    14.2600 hc         1 NF3       0.039033
     13 H3         -44.2350   -22.2030    13.1040 hc         1 NF3       0.039033
     14 H4         -42.2190   -23.1180    11.9130 h1         1 NF3       0.040700
     15 H5         -41.1690   -22.3460    13.0990 h1         1 NF3       0.040700
     16 H6         -41.7930   -18.9750    10.5390 ha         1 NF3       0.153000
     17 H7         -43.0740   -18.1530     8.7280 ha         1 NF3       0.141000
@<TRIPOS>BOND
     1     1     3 1   
     2     1    11 1   
     3     1    12 1   
     4     1    13 1   
     5     2     3 1   
     6     2     4 1   
     7     3    14 1   
     8     3    15 1   
     9     4     5 1   
    10     4     8 2   
    11     5     6 2   
    12     5    16 1   
    13     6     7 1   
    14     6    17 1   
    15     7     9 1   
    16     7    10 1   
@<TRIPOS>SUBSTRUCTURE
     1 NF3         1 TEMP              0 ****  ****    0 ROOT
