@<TRIPOS>MOLECULE
NF4
   86    89     1     0     0
SMALL
No Charge or Current Charge


@<TRIPOS>ATOM
      1 C13          5.1310     3.3510    -2.7690 c3         1 NF4      -0.072400
      2 C15          1.7330     1.3620    -0.4390 c3         1 NF4       0.192800
      3 C20         -3.0610     0.2070    -0.2620 c          1 NF4       0.642100
      4 C24         -5.6560     1.2650    -1.4800 c5         1 NF4       0.128600
      5 C26         -6.2650    -1.0550    -1.6780 c5         1 NF4      -0.132700
      6 C28         -5.5840    -1.4510    -3.0400 c5         1 NF4      -0.103400
      7 C01          3.0040    -2.3700     2.7050 ca         1 NF4      -0.058300
      8 C02          3.1770    -2.6710     1.3380 ca         1 NF4      -0.128500
      9 C03          3.6160    -1.6880     0.4360 ca         1 NF4      -0.015000
     10 C04          3.8910    -0.3840     0.8920 ca         1 NF4      -0.300500
     11 C05          3.7310    -0.0760     2.2580 ca         1 NF4      -0.015000
     12 C06          3.2920    -1.0640     3.1560 ca         1 NF4      -0.128500
     13 C11          3.1080     1.6510    -2.5900 c3         1 NF4       0.244800
     14 C12          3.5880     3.1310    -2.8270 c3         1 NF4      -0.075700
     15 C14          2.8310     4.2130    -2.0050 c3         1 NF4      -0.072400
     16 C16          0.4980     0.5930    -0.9970 c3         1 NF4       0.140300
     17 C18         -0.5670     0.2150     0.0800 c3         1 NF4       0.090700
     18 C23         -5.3490    -0.1110    -0.8250 c5         1 NF4       0.163300
     19 C27         -7.4260    -0.1090    -2.1330 c5         1 NF4       0.375300
     20 C29         -6.7940    -1.3450    -3.9860 c5         1 NF4       0.154600
     21 C31         -0.0970    -0.8450     1.1180 c3         1 NF4      -0.060100
     22 C32         -1.1390    -1.1360     2.1910 ca         1 NF4      -0.091300
     23 C33         -1.2650    -0.2790     3.3020 ca         1 NF4      -0.100000
     24 C34         -2.2200    -0.5470     4.2980 ca         1 NF4      -0.105000
     25 C35         -3.0540    -1.6730     4.1890 ca         1 NF4      -0.103000
     26 C36         -2.9330    -2.5300     3.0820 ca         1 NF4      -0.105000
     27 C37         -1.9770    -2.2630     2.0870 ca         1 NF4      -0.100000
     28 C38          2.5210    -3.4590     3.6670 c3         1 NF4       0.209600
     29 C39          1.3210    -3.0250     4.5320 c3         1 NF4      -0.130100
     30 C41          1.3410     4.3750    -2.3860 c3         1 NF4      -0.091600
     31 C42          5.9480     2.5210    -3.7840 c3         1 NF4      -0.091600
     32 N10          2.9860     1.0890    -1.2060 n3         1 NF4      -0.783500
     33 N19         -1.8060    -0.2300    -0.5720 ns         1 NF4      -0.485900
     34 O08          4.6690     2.1480     0.4150 o          1 NF4      -0.537500
     35 O09          5.3780     0.2570    -1.1760 o          1 NF4      -0.537500
     36 O17          0.9740    -0.5780    -1.6810 oh         1 NF4      -0.655000
     37 O21         -3.3210     1.0770     0.5550 o          1 NF4      -0.529000
     38 O22         -3.9570    -0.4850    -1.0270 os         1 NF4      -0.453100
     39 O25         -7.0860     1.2120    -1.6650 os         1 NF4      -0.443000
     40 O30         -7.3760    -0.0980    -3.5730 os         1 NF4      -0.462000
     41 O40          3.5930    -3.8560     4.5270 oh         1 NF4      -0.644000
     42 S07          4.4030     0.8850    -0.2800 sy         1 NF4       1.190600
     43 H131         5.3390     4.4070    -2.9800 hc         1 NF4       0.040700
     44 H132         5.5160     3.1740    -1.7620 hc         1 NF4       0.040700
     45 H151         1.5030     2.4310    -0.4070 h1         1 NF4       0.061200
     46 H152         1.8590     1.0800     0.6110 h1         1 NF4       0.061200
     47 H241        -5.1640     1.3850    -2.4550 h1         1 NF4       0.068700
     48 H261        -6.6320    -1.9200    -1.1150 hc         1 NF4       0.076700
     49 H281        -4.7980    -0.7610    -3.3670 hc         1 NF4       0.064200
     50 H282        -5.1530    -2.4580    -3.0200 hc         1 NF4       0.064200
     51 H021         2.9660    -3.6720     0.9690 ha         1 NF4       0.122000
     52 H031         3.7330    -1.9390    -0.6170 ha         1 NF4       0.138500
     53 H051         3.9370     0.9280     2.6290 ha         1 NF4       0.138500
     54 H061         3.1750    -0.8040     4.2050 ha         1 NF4       0.122000
     55 H112         2.1250     1.5720    -3.0730 h1         1 NF4       0.058700
     56 H111         3.7510     0.9890    -3.1810 h1         1 NF4       0.058700
     57 H121         3.3290     3.3370    -3.8730 hc         1 NF4       0.052700
     58 H142         2.9290     4.0070    -0.9330 hc         1 NF4       0.040700
     59 H141         3.3110     5.1860    -2.1640 hc         1 NF4       0.040700
     60 H161         0.0140     1.2610    -1.7220 h1         1 NF4       0.093700
     61 H181        -0.7930     1.1360     0.6360 h1         1 NF4       0.093700
     62 H231        -5.6150    -0.1360     0.2420 h1         1 NF4       0.077700
     63 H271        -8.4110    -0.4320    -1.7680 h2         1 NF4       0.087700
     64 H291        -6.5110    -1.3020    -5.0470 h1         1 NF4       0.049200
     65 H292        -7.5170    -2.1580    -3.8340 h1         1 NF4       0.049200
     66 H311         0.1670    -1.7730     0.5960 hc         1 NF4       0.051200
     67 H312         0.8230    -0.5090     1.6050 hc         1 NF4       0.051200
     68 H331        -0.6230     0.5930     3.3940 ha         1 NF4       0.108500
     69 H341        -2.3130     0.1170     5.1540 ha         1 NF4       0.114000
     70 H351        -3.7940    -1.8800     4.9590 ha         1 NF4       0.115000
     71 H361        -3.5780    -3.4010     2.9960 ha         1 NF4       0.114000
     72 H371        -1.8900    -2.9320     1.2330 ha         1 NF4       0.108500
     73 H381         2.1920    -4.3220     3.0710 h1         1 NF4       0.082700
     74 H391         0.4880    -2.7120     3.8940 hc         1 NF4       0.047367
     75 H392         0.9740    -3.8610     5.1520 hc         1 NF4       0.047367
     76 H393         1.5780    -2.1930     5.1970 hc         1 NF4       0.047367
     77 H411         0.8620     5.1170    -1.7360 hc         1 NF4       0.035033
     78 H412         1.2470     4.7220    -3.4220 hc         1 NF4       0.035033
     79 H413         0.7900     3.4340    -2.2940 hc         1 NF4       0.035033
     80 H421         5.5830     2.6850    -4.8050 hc         1 NF4       0.035033
     81 H423         7.0040     2.8160    -3.7500 hc         1 NF4       0.035033
     82 H422         5.8970     1.4490    -3.5660 hc         1 NF4       0.035033
     83 H191        -1.7480    -0.9510    -1.2780 hn         1 NF4       0.328500
     84 H171         1.9430    -0.3990    -1.7520 ho         1 NF4       0.445000
     85 H401         4.0150    -3.0300     4.8440 ho         1 NF4       0.443000
     86 H242        -5.3940     2.1160    -0.8370 h1         1 NF4       0.068700
@<TRIPOS>BOND
     1     1    14 1   
     2     1    31 1   
     3     1    43 1   
     4     1    44 1   
     5     2    16 1   
     6     2    32 1   
     7     2    45 1   
     8     2    46 1   
     9     3    33 1   
    10     3    37 2   
    11     3    38 1   
    12     4    18 1   
    13     4    39 1   
    14     4    47 1   
    15     4    86 1   
    16     5     6 1   
    17     5    18 1   
    18     5    19 1   
    19     5    48 1   
    20     6    20 1   
    21     6    49 1   
    22     6    50 1   
    23     7     8 ar  
    24     7    12 ar  
    25     7    28 1   
    26     8     9 ar  
    27     8    51 1   
    28     9    10 ar  
    29     9    52 1   
    30    10    11 ar  
    31    10    42 1   
    32    11    12 ar  
    33    11    53 1   
    34    12    54 1   
    35    13    14 1   
    36    13    32 1   
    37    13    55 1   
    38    13    56 1   
    39    14    15 1   
    40    14    57 1   
    41    15    30 1   
    42    15    58 1   
    43    15    59 1   
    44    16    17 1   
    45    16    36 1   
    46    16    60 1   
    47    17    21 1   
    48    17    33 1   
    49    17    61 1   
    50    18    38 1   
    51    18    62 1   
    52    19    39 1   
    53    19    40 1   
    54    19    63 1   
    55    20    40 1   
    56    20    64 1   
    57    20    65 1   
    58    21    22 1   
    59    21    66 1   
    60    21    67 1   
    61    22    23 ar  
    62    22    27 ar  
    63    23    24 ar  
    64    23    68 1   
    65    24    25 ar  
    66    24    69 1   
    67    25    26 ar  
    68    25    70 1   
    69    26    27 ar  
    70    26    71 1   
    71    27    72 1   
    72    28    29 1   
    73    28    41 1   
    74    28    73 1   
    75    29    74 1   
    76    29    75 1   
    77    29    76 1   
    78    30    77 1   
    79    30    78 1   
    80    30    79 1   
    81    31    80 1   
    82    31    81 1   
    83    31    82 1   
    84    32    42 1   
    85    33    83 1   
    86    34    42 2   
    87    35    42 2   
    88    36    84 1   
    89    41    85 1   
@<TRIPOS>SUBSTRUCTURE
     1 NF4         1 TEMP              0 ****  ****    0 ROOT
