@<TRIPOS>MOLECULE
NF4
   86    89     1     0     0
SMALL
bcc


@<TRIPOS>ATOM
      1 C13          5.0090     3.6070    -2.3530 c3         1 NF4      -0.072400
      2 C15          1.9700     1.5990    -0.0740 c3         1 NF4       0.192800
      3 C20         -2.7570     0.5710    -0.2440 c          1 NF4       0.758100
      4 C24         -5.5440     0.8770    -1.6180 c5         1 NF4       0.105400
      5 C26         -5.8200    -1.3320    -0.8150 c5         1 NF4      -0.132700
      6 C28         -5.3310    -2.2130    -1.9670 c5         1 NF4      -0.103400
      7 C01          3.1290    -3.1400     1.5400 ca         1 NF4      -0.058300
      8 C02          3.6350    -2.9890     0.2480 ca         1 NF4      -0.146500
      9 C03          4.0870    -1.7630    -0.2050 ca         1 NF4      -0.033000
     10 C04          4.0370    -0.6660     0.6510 ca         1 NF4      -0.300500
     11 C05          3.5670    -0.8010     1.9490 ca         1 NF4      -0.033000
     12 C06          3.1160    -2.0380     2.3880 ca         1 NF4      -0.146500
     13 C11          3.2710     1.7240    -2.2490 c3         1 NF4       0.244800
     14 C12          3.5760     3.1690    -2.6700 c3         1 NF4      -0.075700
     15 C14          2.5740     4.2010    -2.1430 c3         1 NF4      -0.072400
     16 C16          0.8340     0.7160    -0.6040 c3         1 NF4       0.117100
     17 C18         -0.3850     0.7760     0.3300 c3         1 NF4       0.090700
     18 C23         -5.0010    -0.0750    -0.5540 c5         1 NF4       0.140100
     19 C27         -7.1470    -0.7590    -1.3440 c5         1 NF4       0.328900
     20 C29         -6.6380    -2.6070    -2.6340 c5         1 NF4       0.131400
     21 C31         -0.1310     0.1680     1.7240 c3         1 NF4      -0.060100
     22 C32         -1.3680     0.2130     2.5740 ca         1 NF4      -0.091300
     23 C33         -1.6990     1.3690     3.2760 ca         1 NF4      -0.118000
     24 C34         -2.8740     1.4430     4.0080 ca         1 NF4      -0.123000
     25 C35         -3.7440     0.3600     4.0410 ca         1 NF4      -0.121000
     26 C36         -3.4220    -0.7990     3.3490 ca         1 NF4      -0.123000
     27 C37         -2.2390    -0.8710     2.6250 ca         1 NF4      -0.118000
     28 C38          2.5710    -4.4800     1.9690 c3         1 NF4       0.186400
     29 C39          1.1450    -4.6390     1.4530 c3         1 NF4      -0.130100
     30 C41          1.1390     4.0110    -2.6140 c3         1 NF4      -0.091600
     31 C42          6.0700     2.9520    -3.2260 c3         1 NF4      -0.091600
     32 N10          3.2190     1.4660    -0.8090 n3         1 NF4      -0.783500
     33 N19         -1.4930     0.1080    -0.3130 ns         1 NF4      -0.552900
     34 O08          4.7360     1.7770     1.1930 o          1 NF4      -0.608300
     35 O09          5.6110     0.7230    -0.9090 o          1 NF4      -0.608300
     36 O17          1.2200    -0.6060    -0.8780 oh         1 NF4      -0.592800
     37 O21         -3.0870     1.6810     0.1120 o          1 NF4      -0.578000
     38 O22         -3.6200    -0.3670    -0.6620 os         1 NF4      -0.429900
     39 O25         -6.9320     0.5980    -1.6300 os         1 NF4      -0.396600
     40 O30         -7.4760    -1.4680    -2.5070 os         1 NF4      -0.415600
     41 O40          2.6550    -4.6780     3.3590 oh         1 NF4      -0.581800
     42 S07          4.5220     0.9230     0.0330 sy         1 NF4       1.332200
     43 H131         5.0720     4.6910    -2.4920 hc         1 NF4       0.040700
     44 H132         5.2260     3.4400    -1.2940 hc         1 NF4       0.040700
     45 H151         1.6300     2.6370    -0.0820 h1         1 NF4       0.061200
     46 H152         2.1580     1.3760     0.9760 h1         1 NF4       0.061200
     47 H241        -5.0740     0.6810    -2.5910 h1         1 NF4       0.068700
     48 H261        -5.9690    -1.9220     0.0910 hc         1 NF4       0.076700
     49 H281        -4.7050    -1.6570    -2.6680 hc         1 NF4       0.064200
     50 H282        -4.7610    -3.0750    -1.6260 hc         1 NF4       0.064200
     51 H021         3.6720    -3.8430    -0.4170 ha         1 NF4       0.140000
     52 H031         4.4660    -1.6680    -1.2130 ha         1 NF4       0.156500
     53 H051         3.5460     0.0440     2.6240 ha         1 NF4       0.156500
     54 H061         2.7550    -2.1260     3.4040 ha         1 NF4       0.140000
     55 H112         2.3110     1.4180    -2.6660 h1         1 NF4       0.058700
     56 H111         4.0010     1.0530    -2.7010 h1         1 NF4       0.058700
     57 H121         3.4750     3.1580    -3.7640 hc         1 NF4       0.052700
     58 H142         2.6210     4.2420    -1.0500 hc         1 NF4       0.040700
     59 H141         2.9110     5.1850    -2.4800 hc         1 NF4       0.040700
     60 H161         0.4960     1.1150    -1.5650 h1         1 NF4       0.093700
     61 H181        -0.6590     1.8260     0.4530 h1         1 NF4       0.093700
     62 H231        -5.2240     0.3160     0.4430 h1         1 NF4       0.077700
     63 H271        -7.9770    -0.8140    -0.6330 h2         1 NF4       0.087700
     64 H291        -6.5300    -2.8450    -3.6920 h1         1 NF4       0.049200
     65 H292        -7.0870    -3.4740    -2.1350 h1         1 NF4       0.049200
     66 H311         0.1990    -0.8710     1.6230 hc         1 NF4       0.051200
     67 H312         0.6770     0.7050     2.2260 hc         1 NF4       0.051200
     68 H331        -1.0300     2.2220     3.2490 ha         1 NF4       0.126500
     69 H341        -3.1140     2.3480     4.5520 ha         1 NF4       0.132000
     70 H351        -4.6630     0.4170     4.6100 ha         1 NF4       0.133000
     71 H361        -4.0910    -1.6510     3.3730 ha         1 NF4       0.132000
     72 H371        -1.9920    -1.7840     2.0950 ha         1 NF4       0.126500
     73 H381         3.1910    -5.2580     1.5130 h1         1 NF4       0.082700
     74 H391         1.1010    -4.5330     0.3690 hc         1 NF4       0.047367
     75 H392         0.7510    -5.6230     1.7120 hc         1 NF4       0.047367
     76 H393         0.4870    -3.8810     1.8870 hc         1 NF4       0.047367
     77 H411         0.4990     4.8110    -2.2390 hc         1 NF4       0.035033
     78 H412         1.0810     4.0270    -3.7040 hc         1 NF4       0.035033
     79 H413         0.6960     3.0700    -2.2850 hc         1 NF4       0.035033
     80 H421         5.9150     3.2040    -4.2770 hc         1 NF4       0.035033
     81 H423         7.0680     3.2940    -2.9500 hc         1 NF4       0.035033
     82 H422         6.0670     1.8670    -3.1410 hc         1 NF4       0.035033
     83 H191        -1.3610    -0.8630    -0.5570 hn         1 NF4       0.328500
     84 H171         1.6370    -0.9920    -0.1020 ho         1 NF4       0.406000
     85 H401         1.8660    -4.3170     3.7770 ho         1 NF4       0.404000
     86 H242        -5.4030     1.9290    -1.3750 h1         1 NF4       0.068700
@<TRIPOS>BOND
     1     1    14 1   
     2     1    31 1   
     3     1    43 1   
     4     1    44 1   
     5     2    16 1   
     6     2    32 1   
     7     2    45 1   
     8     2    46 1   
     9     3    33 1   
    10     3    37 2   
    11     3    38 1   
    12     4    18 1   
    13     4    39 1   
    14     4    47 1   
    15     4    86 1   
    16     5     6 1   
    17     5    18 1   
    18     5    19 1   
    19     5    48 1   
    20     6    20 1   
    21     6    49 1   
    22     6    50 1   
    23     7     8 ar  
    24     7    12 ar  
    25     7    28 1   
    26     8     9 ar  
    27     8    51 1   
    28     9    10 ar  
    29     9    52 1   
    30    10    11 ar  
    31    10    42 1   
    32    11    12 ar  
    33    11    53 1   
    34    12    54 1   
    35    13    14 1   
    36    13    32 1   
    37    13    55 1   
    38    13    56 1   
    39    14    15 1   
    40    14    57 1   
    41    15    30 1   
    42    15    58 1   
    43    15    59 1   
    44    16    17 1   
    45    16    36 1   
    46    16    60 1   
    47    17    21 1   
    48    17    33 1   
    49    17    61 1   
    50    18    38 1   
    51    18    62 1   
    52    19    39 1   
    53    19    40 1   
    54    19    63 1   
    55    20    40 1   
    56    20    64 1   
    57    20    65 1   
    58    21    22 1   
    59    21    66 1   
    60    21    67 1   
    61    22    23 ar  
    62    22    27 ar  
    63    23    24 ar  
    64    23    68 1   
    65    24    25 ar  
    66    24    69 1   
    67    25    26 ar  
    68    25    70 1   
    69    26    27 ar  
    70    26    71 1   
    71    27    72 1   
    72    28    29 1   
    73    28    41 1   
    74    28    73 1   
    75    29    74 1   
    76    29    75 1   
    77    29    76 1   
    78    30    77 1   
    79    30    78 1   
    80    30    79 1   
    81    31    80 1   
    82    31    81 1   
    83    31    82 1   
    84    32    42 1   
    85    33    83 1   
    86    34    42 2   
    87    35    42 2   
    88    36    84 1   
    89    41    85 1   
@<TRIPOS>SUBSTRUCTURE
     1 NF4         1 TEMP              0 ****  ****    0 ROOT
