@<TRIPOS>MOLECULE
NF5
   38    40     1     0     0
SMALL
bcc


@<TRIPOS>ATOM
      1 BR1         -6.2820     0.6510    -0.2840 br         1 NF5      -0.085100
      2 C2          -4.4330     0.3220    -0.1500 ca         1 NF5      -0.000900
      3 C3          -3.9330    -0.9260    -0.4960 ca         1 NF5      -0.111000
      4 C4          -2.5740    -1.1620    -0.3890 ca         1 NF5      -0.090500
      5 C5          -1.7060    -0.1600     0.0360 ca         1 NF5      -0.144600
      6 C6          -2.2300     1.0810     0.3870 ca         1 NF5      -0.090500
      7 C7          -3.5910     1.3280     0.2990 ca         1 NF5      -0.111000
      8 C8          -0.2530    -0.4840     0.1430 c          1 NF5       0.687700
      9 O9           0.1230    -1.6150     0.3910 o          1 NF5      -0.574100
     10 N10          0.5760     0.5690    -0.0690 ns         1 NF5      -0.467100
     11 C11          1.9730     0.6270     0.0030 ca         1 NF5       0.070600
     12 C12          2.5780     1.8150    -0.4010 ca         1 NF5      -0.187000
     13 C13          3.9540     1.9480    -0.3440 ca         1 NF5      -0.100000
     14 C14          4.7710     0.9190     0.1090 ca         1 NF5      -0.095300
     15 C15          6.2640     1.0940     0.1390 c3         1 NF5      -0.028100
     16 C16          7.0360     0.1110    -0.7420 c3         1 NF5       0.172800
     17 N17          7.1880    -1.1890    -0.1250 n7         1 NF5      -0.824200
     18 C20          5.9810    -1.9820    -0.0250 c3         1 NF5       0.172800
     19 C21          4.9920    -1.4320     1.0040 c3         1 NF5      -0.036100
     20 C22          4.1640    -0.2730     0.5160 ca         1 NF5      -0.044300
     21 C23          2.7810    -0.4120     0.4610 ca         1 NF5      -0.149000
     22 H3          -4.5870    -1.7140    -0.8430 ha         1 NF5       0.152000
     23 H4          -2.1880    -2.1370    -0.6530 ha         1 NF5       0.147000
     24 H6          -1.5980     1.8730     0.7670 ha         1 NF5       0.147000
     25 H7          -3.9770     2.2950     0.5870 ha         1 NF5       0.152000
     26 HN10         0.1410     1.4130    -0.4070 hn         1 NF5       0.318500
     27 H12          1.9790     2.6440    -0.7600 ha         1 NF5       0.126000
     28 H13          4.3980     2.8820    -0.6650 ha         1 NF5       0.128000
     29 H15          6.5020     2.1080    -0.1890 hc         1 NF5       0.053200
     30 H15A         6.6440     1.0020     1.1620 hc         1 NF5       0.053200
     31 H16          6.5560     0.0690    -1.7330 h1         1 NF5       0.029200
     32 H16A         8.0400     0.5130    -0.8970 h1         1 NF5       0.029200
     33 HN17         7.8870    -1.7140    -0.6310 hn         1 NF5       0.358800
     34 H20          5.4590    -2.1040    -0.9880 h1         1 NF5       0.031200
     35 H20A         6.2790    -2.9810     0.2990 h1         1 NF5       0.031200
     36 H21          4.3220    -2.2400     1.3020 hc         1 NF5       0.057700
     37 H21A         5.5540    -1.1490     1.8990 hc         1 NF5       0.057700
     38 H23          2.3400    -1.3410     0.7820 ha         1 NF5       0.163000
@<TRIPOS>BOND
     1     1     2 1   
     2     2     3 ar  
     3     2     7 ar  
     4     3     4 ar  
     5     3    22 1   
     6     4     5 ar  
     7     4    23 1   
     8     5     6 ar  
     9     5     8 1   
    10     6     7 ar  
    11     6    24 1   
    12     7    25 1   
    13     8     9 2   
    14     8    10 1   
    15    10    11 1   
    16    10    26 1   
    17    11    12 ar  
    18    11    21 ar  
    19    12    13 ar  
    20    12    27 1   
    21    13    14 ar  
    22    13    28 1   
    23    14    15 1   
    24    14    20 ar  
    25    15    16 1   
    26    15    29 1   
    27    15    30 1   
    28    16    17 1   
    29    16    31 1   
    30    16    32 1   
    31    17    18 1   
    32    17    33 1   
    33    18    19 1   
    34    18    34 1   
    35    18    35 1   
    36    19    20 1   
    37    19    36 1   
    38    19    37 1   
    39    20    21 ar  
    40    21    38 1   
@<TRIPOS>SUBSTRUCTURE
     1 NF5         1 TEMP              0 ****  ****    0 ROOT
