@<TRIPOS>MOLECULE
NF5
   38    40     1     0     0
SMALL
No Charge or Current Charge


@<TRIPOS>ATOM
      1 Br1         -6.4140     0.7900    -0.3890 br         1 NF5      -0.085100
      2 C2          -4.5510     0.3880    -0.2310 ca         1 NF5      -0.000900
      3 C3          -4.1340    -0.9360    -0.0320 ca         1 NF5      -0.093000
      4 C4          -2.7650    -1.2320     0.0830 ca         1 NF5      -0.072500
      5 C5          -1.7910    -0.2080     0.0010 ca         1 NF5      -0.144600
      6 C6          -2.2310     1.1260    -0.2000 ca         1 NF5      -0.072500
      7 C7          -3.6020     1.4170    -0.3150 ca         1 NF5      -0.093000
      8 C8          -0.3190    -0.5660     0.1310 c          1 NF5       0.620700
      9 O9           0.0360    -1.7270     0.3050 o          1 NF5      -0.574100
     10 N10          0.5730     0.4980     0.0340 ns         1 NF5      -0.141000
     11 C11          1.9920     0.5780     0.1160 ca         1 NF5      -0.022000
     12 C12          2.5830     1.8260    -0.1370 ca         1 NF5      -0.169000
     13 C13          3.9750     1.9860    -0.0720 ca         1 NF5      -0.082000
     14 C14          4.8080     0.8970     0.2490 ca         1 NF5      -0.095300
     15 C15          6.3210     1.1080     0.3140 c3         1 NF5      -0.028100
     16 C16          7.1100     0.2600    -0.7100 c3         1 NF5       0.172800
     17 N17          7.2870    -1.1440    -0.2750 n7         1 NF5      -0.879400
     18 C20          6.0730    -1.9900    -0.2410 c3         1 NF5       0.172800
     19 C21          5.0890    -1.5730     0.8750 c3         1 NF5      -0.036100
     20 C22          4.2270    -0.3640     0.5110 ca         1 NF5      -0.044300
     21 C23          2.8250    -0.5130     0.4450 ca         1 NF5      -0.131000
     22 H3          -4.8690    -1.7350     0.0330 ha         1 NF5       0.134000
     23 H4          -2.4640    -2.2670     0.2370 ha         1 NF5       0.129000
     24 H6          -1.5280     1.9530    -0.2700 ha         1 NF5       0.129000
     25 H7          -3.9270     2.4430    -0.4690 ha         1 NF5       0.134000
     26 HN10         0.1300     1.3920    -0.1260 hn         1 NF5       0.152000
     27 H12          1.9610     2.6830    -0.3880 ha         1 NF5       0.108000
     28 H13          4.4060     2.9640    -0.2730 ha         1 NF5       0.110000
     29 H15          6.5570     2.1610     0.1220 hc         1 NF5       0.053200
     30 H15A         6.6940     0.9040     1.3250 hc         1 NF5       0.053200
     31 H16          6.6160     0.3120    -1.6900 h1         1 NF5       0.029200
     32 H16A         8.1020     0.7200    -0.8250 h1         1 NF5       0.029200
     33 HN17         7.9430    -1.5830    -0.9350 hn         1 NF5       0.414000
     34 H20          5.5560    -1.9810    -1.2110 h1         1 NF5       0.031200
     35 H20A         6.3740    -3.0280    -0.0460 h1         1 NF5       0.031200
     36 H21          4.4480    -2.4370     1.0880 hc         1 NF5       0.057700
     37 H21A         5.6430    -1.3850     1.8020 hc         1 NF5       0.057700
     38 H23          2.4000    -1.4880     0.6580 ha         1 NF5       0.145000
@<TRIPOS>BOND
     1     1     2 1   
     2     2     3 ar  
     3     2     7 ar  
     4     3     4 ar  
     5     3    22 1   
     6     4     5 ar  
     7     4    23 1   
     8     5     6 ar  
     9     5     8 1   
    10     6     7 ar  
    11     6    24 1   
    12     7    25 1   
    13     8     9 2   
    14     8    10 1   
    15    10    11 1   
    16    10    26 1   
    17    11    12 ar  
    18    11    21 ar  
    19    12    13 ar  
    20    12    27 1   
    21    13    14 ar  
    22    13    28 1   
    23    14    15 1   
    24    14    20 ar  
    25    15    16 1   
    26    15    29 1   
    27    15    30 1   
    28    16    17 1   
    29    16    31 1   
    30    16    32 1   
    31    17    18 1   
    32    17    33 1   
    33    18    19 1   
    34    18    34 1   
    35    18    35 1   
    36    19    20 1   
    37    19    36 1   
    38    19    37 1   
    39    20    21 ar  
    40    21    38 1   
@<TRIPOS>SUBSTRUCTURE
     1 NF5         1 TEMP              0 ****  ****    0 ROOT
