@<TRIPOS>MOLECULE
NF6
   49    52     1     0     0
SMALL
bcc


@<TRIPOS>ATOM
      1 OAH          0.0780    -2.3260    -0.0500 o          1 NF6      -0.602500
      2 CAC          0.8280    -1.3970     0.1820 c          1 NF6       0.733100
      3 CAD          2.2810    -1.4940    -0.0370 ca         1 NF6      -0.176600
      4 CAE          3.1050    -0.3700     0.1680 ca         1 NF6       0.049000
      5 CAF          2.5450     0.8260     0.6580 ca         1 NF6      -0.209600
      6 CAM          3.3750     1.8960     0.9140 ca         1 NF6       0.004000
      7 CAL          4.7390     1.8390     0.6390 ca         1 NF6      -0.232000
      8 CAK          5.3180     0.7040     0.0880 ca         1 NF6       0.217600
      9 NAZ          6.6540     0.6540    -0.2450 nh         1 NF6      -0.659000
     10 CBA          7.0200     0.3380    -1.6210 c3         1 NF6       0.183100
     11 CBB          7.5360     1.6450     0.3330 c3         1 NF6       0.183100
     12 CAJ          4.4950    -0.4620    -0.0850 ca         1 NF6      -0.085000
     13 CAP          5.0260    -1.7230    -0.4250 ca         1 NF6      -0.061000
     14 CAO          4.2100    -2.8140    -0.5970 ca         1 NF6      -0.166000
     15 CAN          2.8270    -2.6960    -0.4310 ca         1 NF6      -0.027000
     16 CAG          1.1110     0.9310     0.9180 c          1 NF6       0.741100
     17 OAI          0.5910     1.9500     1.3320 o          1 NF6      -0.609500
     18 NAB          0.3370    -0.1990     0.6730 n          1 NF6      -0.507400
     19 CAA         -1.1030    -0.0970     0.9020 c3         1 NF6       0.089000
     20 CAW         -1.8400     0.3860    -0.3410 c3         1 NF6       0.146800
     21 NAX         -3.2510     0.5190    -0.0350 n7         1 NF6      -0.819200
     22 CAY         -4.0660     0.8210    -1.1910 c3         1 NF6       0.125500
     23 CAQ         -5.5060     0.6600    -0.8440 cc         1 NF6       0.395700
     24 SAU         -6.0000    -0.4750     0.3570 ss         1 NF6      -0.224800
     25 NAR         -6.4900     1.2850    -1.3940 nd         1 NF6      -0.329000
     26 NAS         -7.6980     0.9030    -0.9180 nd         1 NF6      -0.327000
     27 CAT         -7.6240    -0.0070    -0.0030 cc         1 NF6       0.389700
     28 CAV         -8.8010    -0.5930     0.6900 c3         1 NF6      -0.129400
     29 H1           2.9620     2.8160     1.3070 ha         1 NF6       0.155000
     30 H2           5.3330     2.7240     0.8160 ha         1 NF6       0.142000
     31 H3           7.0930     1.2520    -2.2200 h1         1 NF6       0.041867
     32 H4           7.9880    -0.1630    -1.6430 h1         1 NF6       0.041867
     33 H5           6.2900    -0.3090    -2.0960 h1         1 NF6       0.041867
     34 H6           7.3640     1.7330     1.4040 h1         1 NF6       0.041867
     35 H7           8.5650     1.3190     0.1840 h1         1 NF6       0.041867
     36 H8           7.4330     2.6370    -0.1230 h1         1 NF6       0.041867
     37 H9           6.0950    -1.8460    -0.5240 ha         1 NF6       0.145000
     38 H10          4.6390    -3.7730    -0.8530 ha         1 NF6       0.142000
     39 H11          2.1900    -3.5560    -0.5850 ha         1 NF6       0.159000
     40 H12         -1.4800    -1.0700     1.2050 h1         1 NF6       0.076700
     41 H13         -1.3890     1.3190    -0.7040 h1         1 NF6       0.044700
     42 H14         -3.3740     1.2500     0.6570 hn         1 NF6       0.363800
     43 H15         -3.9100     1.8190    -1.6180 h1         1 NF6       0.063700
     44 H16         -3.8230     0.1020    -1.9800 h1         1 NF6       0.063700
     45 H17         -8.7560    -0.4090     1.7630 hc         1 NF6       0.060700
     46 H18         -9.7140    -0.1490     0.3000 hc         1 NF6       0.060700
     47 H19         -8.8470    -1.6710     0.5420 hc         1 NF6       0.060700
     48 H20         -1.2660     0.5900     1.7300 h1         1 NF6       0.076700
     49 H21         -1.7300    -0.3530    -1.1370 h1         1 NF6       0.044700
@<TRIPOS>BOND
     1     1     2 2   
     2     2     3 1   
     3     2    18 1   
     4     3     4 ar  
     5     3    15 ar  
     6     4     5 ar  
     7     4    12 ar  
     8     5     6 ar  
     9     5    16 1   
    10     6     7 ar  
    11     6    29 1   
    12     7     8 ar  
    13     7    30 1   
    14     8     9 1   
    15     8    12 ar  
    16     9    10 1   
    17     9    11 1   
    18    10    31 1   
    19    10    32 1   
    20    10    33 1   
    21    11    34 1   
    22    11    35 1   
    23    11    36 1   
    24    12    13 ar  
    25    13    14 ar  
    26    13    37 1   
    27    14    15 ar  
    28    14    38 1   
    29    15    39 1   
    30    16    17 2   
    31    16    18 1   
    32    18    19 1   
    33    19    20 1   
    34    19    40 1   
    35    19    48 1   
    36    20    21 1   
    37    20    41 1   
    38    20    49 1   
    39    21    22 1   
    40    21    42 1   
    41    22    23 1   
    42    22    43 1   
    43    22    44 1   
    44    23    24 1   
    45    23    25 2   
    46    24    27 1   
    47    25    26 1   
    48    26    27 2   
    49    27    28 1   
    50    28    45 1   
    51    28    46 1   
    52    28    47 1   
@<TRIPOS>SUBSTRUCTURE
     1 NF6         1 TEMP              0 ****  ****    0 ROOT
