@<TRIPOS>MOLECULE
NF6
   49    52     1     0     0
SMALL
No Charge or Current Charge


@<TRIPOS>ATOM
      1 OAH          0.2820    -2.4060     0.4150 o          1 NF6      -0.527000
      2 CAC          0.9730    -1.3950     0.4300 c          1 NF6       0.590600
      3 CAD          2.4460    -1.4640     0.1360 ca         1 NF6      -0.176600
      4 CAE          3.2410    -0.3010     0.1450 ca         1 NF6       0.049000
      5 CAF          2.6470     0.9400     0.4420 ca         1 NF6      -0.209600
      6 CAM          3.4430     2.1030     0.4590 ca         1 NF6       0.022000
      7 CAL          4.8130     2.0270     0.1770 ca         1 NF6      -0.214000
      8 CAK          5.4170     0.8000    -0.1270 ca         1 NF6       0.356000
      9 NAZ          6.7990     0.7890    -0.4260 nh         1 NF6      -0.797400
     10 CBA          7.2570     0.6000    -1.8200 c3         1 NF6       0.183100
     11 CBB          7.7760     1.3520     0.5310 c3         1 NF6       0.183100
     12 CAJ          4.6290    -0.3790    -0.1380 ca         1 NF6      -0.085000
     13 CAP          5.2060    -1.6400    -0.4130 ca         1 NF6      -0.043000
     14 CAO          4.4130    -2.7950    -0.4210 ca         1 NF6      -0.148000
     15 CAN          3.0410    -2.7110    -0.1520 ca         1 NF6      -0.009000
     16 CAG          1.1790     1.0440     0.7420 c          1 NF6       0.598600
     17 OAI          0.6650     2.1260     0.9960 o          1 NF6      -0.534000
     18 NAB          0.4250    -0.1370     0.7110 n          1 NF6      -0.373400
     19 CAA         -1.0290    -0.0550     1.0380 c3         1 NF6       0.089000
     20 CAW         -1.9150     0.1850    -0.2060 c3         1 NF6       0.146800
     21 NAX         -3.3460     0.2670     0.1650 n7         1 NF6      -0.874400
     22 CAY         -4.2930     0.4180    -0.9820 c3         1 NF6       0.125500
     23 CAQ         -5.7540     0.4770    -0.5660 cc         1 NF6       0.395700
     24 SAU         -6.7700    -0.9350    -0.6430 ss         1 NF6      -0.224800
     25 NAR         -6.3530     1.5770    -0.1260 nd         1 NF6      -0.329000
     26 NAS         -7.6820     1.3520     0.1840 nd         1 NF6      -0.327000
     27 CAT         -8.0310     0.0920    -0.0340 cc         1 NF6       0.389700
     28 CAV         -9.4090    -0.4470     0.2130 c3         1 NF6      -0.129400
     29 H1           3.0040     3.0730     0.6860 ha         1 NF6       0.137000
     30 H2           5.4090     2.9350     0.1820 ha         1 NF6       0.124000
     31 H3           7.6220     1.5480    -2.2380 h1         1 NF6       0.041867
     32 H4           8.0670    -0.1400    -1.8600 h1         1 NF6       0.041867
     33 H5           6.4350     0.2400    -2.4530 h1         1 NF6       0.041867
     34 H6           7.3940     1.2780     1.5580 h1         1 NF6       0.041867
     35 H7           8.7230     0.7970     0.4840 h1         1 NF6       0.041867
     36 H8           7.9740     2.4080     0.3050 h1         1 NF6       0.041867
     37 H9           6.2690    -1.7360    -0.6150 ha         1 NF6       0.127000
     38 H10          4.8660    -3.7610    -0.6350 ha         1 NF6       0.124000
     39 H11          2.4440    -3.6220    -0.1630 ha         1 NF6       0.141000
     40 H12         -1.3550    -0.9790     1.5310 h1         1 NF6       0.076700
     41 H13         -1.5930     1.1130    -0.6980 h1         1 NF6       0.044700
     42 H14         -3.4750     1.0700     0.7980 hn         1 NF6       0.419000
     43 H15         -4.0660     1.3340    -1.5450 h1         1 NF6       0.063700
     44 H16         -4.1760    -0.4200    -1.6820 h1         1 NF6       0.063700
     45 H17         -9.3900    -1.2040     1.0050 hc         1 NF6       0.060700
     46 H18        -10.0980     0.3490     0.5210 hc         1 NF6       0.060700
     47 H19         -9.8110    -0.9110    -0.6950 hc         1 NF6       0.060700
     48 H20         -1.2030     0.7510     1.7630 h1         1 NF6       0.076700
     49 H21         -1.7520    -0.6400    -0.9130 h1         1 NF6       0.044700
@<TRIPOS>BOND
     1     1     2 2   
     2     2     3 1   
     3     2    18 1   
     4     3     4 ar  
     5     3    15 ar  
     6     4     5 ar  
     7     4    12 ar  
     8     5     6 ar  
     9     5    16 1   
    10     6     7 ar  
    11     6    29 1   
    12     7     8 ar  
    13     7    30 1   
    14     8     9 1   
    15     8    12 ar  
    16     9    10 1   
    17     9    11 1   
    18    10    31 1   
    19    10    32 1   
    20    10    33 1   
    21    11    34 1   
    22    11    35 1   
    23    11    36 1   
    24    12    13 ar  
    25    13    14 ar  
    26    13    37 1   
    27    14    15 ar  
    28    14    38 1   
    29    15    39 1   
    30    16    17 2   
    31    16    18 1   
    32    18    19 1   
    33    19    20 1   
    34    19    40 1   
    35    19    48 1   
    36    20    21 1   
    37    20    41 1   
    38    20    49 1   
    39    21    22 1   
    40    21    42 1   
    41    22    23 1   
    42    22    43 1   
    43    22    44 1   
    44    23    24 1   
    45    23    25 2   
    46    24    27 1   
    47    25    26 1   
    48    26    27 2   
    49    27    28 1   
    50    28    45 1   
    51    28    46 1   
    52    28    47 1   
@<TRIPOS>SUBSTRUCTURE
     1 NF6         1 TEMP              0 ****  ****    0 ROOT
