@<TRIPOS>MOLECULE
NF7
   81    84     1     0     0
SMALL
abcg2


@<TRIPOS>ATOM
      1 C13         71.3030    57.2130    15.1380 c3         1 NF7       0.156300
      2 C15         70.9190    57.8250    16.4940 c3         1 NF7       0.097700
      3 C17         72.7110    58.6720    17.9540 c          1 NF7       0.634100
      4 C20         74.3060    59.8170    19.3120 c5         1 NF7       0.160300
      5 C21         75.3820    60.8510    19.0330 c5         1 NF7       0.152600
      6 C24         74.0710    61.8470    20.6520 c5         1 NF7       0.367300
      7 C26         71.8260    61.8480    20.1290 c5         1 NF7       0.149600
      8 C28         69.5120    58.4350    16.5200 c3         1 NF7      -0.040100
      9 C01         67.2150    51.6750    13.7310 ca         1 NF7      -0.063300
     10 C02         66.8800    53.0050    13.9780 ca         1 NF7      -0.113500
     11 C03         67.6170    53.7650    14.8760 ca         1 NF7      -0.018000
     12 C04         68.6990    53.1870    15.5350 ca         1 NF7      -0.312500
     13 C05         69.0450    51.8570    15.3040 ca         1 NF7      -0.018000
     14 C06         68.2980    51.1110    14.4060 ca         1 NF7      -0.113500
     15 C11         71.8870    53.8450    15.1780 c3         1 NF7       0.204800
     16 C12         70.5540    55.9230    14.8040 c3         1 NF7       0.211800
     17 C23         73.6410    60.3570    20.5950 c5         1 NF7      -0.141700
     18 C25         72.1070    60.4340    20.6210 c5         1 NF7      -0.093400
     19 C29         69.1420    58.9810    17.8760 ca         1 NF7      -0.085300
     20 C30         68.9550    60.3500    18.0660 ca         1 NF7      -0.101500
     21 C31         68.6130    60.8590    19.3160 ca         1 NF7      -0.116000
     22 C32         68.4620    60.0040    20.4000 ca         1 NF7      -0.115000
     23 C33         68.6540    58.6360    20.2250 ca         1 NF7      -0.116000
     24 C34         68.9890    58.1300    18.9740 ca         1 NF7      -0.101500
     25 C35         67.1260    50.7880    11.3730 c3         1 NF7       0.170600
     26 C36         73.3180    54.3830    15.1350 c3         1 NF7      -0.063700
     27 C37         73.8220    54.7590    16.5260 c3         1 NF7      -0.091600
     28 C38         66.4430    50.8340    12.7340 c3         1 NF7       0.212600
     29 C40         74.2150    53.3300    14.4830 c3         1 NF7      -0.091600
     30 N10         70.9010    54.8120    15.7040 n3         1 NF7      -0.743500
     31 N16         71.9000    58.8270    16.8890 ns         1 NF7      -0.501900
     32 O08         68.8770    55.2820    17.0740 o          1 NF7      -0.544500
     33 O09         70.2960    53.3070    17.5960 o          1 NF7      -0.544500
     34 O14         71.0430    58.0910    14.0420 oh         1 NF7      -0.671000
     35 O18         72.8250    57.6580    18.6230 o          1 NF7      -0.539000
     36 O19         73.4080    59.8120    18.1850 os         1 NF7      -0.459100
     37 O22         74.8350    62.0960    19.4690 os         1 NF7      -0.467000
     38 O27         72.9150    62.6330    20.6630 os         1 NF7      -0.445000
     39 O39         65.1080    51.2920    12.5360 oh         1 NF7      -0.644000
     40 S07         69.6870    54.1780    16.6190 sy         1 NF7       1.191600
     41 H131        72.3720    56.9970    15.1830 h1         1 NF7       0.054700
     42 H151        70.9850    57.0300    17.2340 h1         1 NF7       0.101700
     43 H201        74.7050    58.8160    19.4420 h1         1 NF7       0.086700
     44 H211        75.6310    60.9300    17.9760 h1         1 NF7       0.062200
     45 H212        76.2850    60.6060    19.6020 h1         1 NF7       0.062200
     46 H241        74.6680    62.1200    21.5260 h2         1 NF7       0.081700
     47 H261        70.9010    62.2750    20.5080 h1         1 NF7       0.057700
     48 H262        71.8260    61.9010    19.0370 h1         1 NF7       0.057700
     49 H282        69.4570    59.2320    15.7780 hc         1 NF7       0.065200
     50 H281        68.7990    57.6650    16.2250 hc         1 NF7       0.065200
     51 H021        66.0350    53.4460    13.4700 ha         1 NF7       0.126000
     52 H031        67.3460    54.7920    15.0720 ha         1 NF7       0.133500
     53 H051        69.8740    51.4080    15.8320 ha         1 NF7       0.133500
     54 H061        68.5540    50.0720    14.2350 ha         1 NF7       0.126000
     55 H111        71.5760    53.5360    14.1740 h1         1 NF7       0.051700
     56 H112        71.8710    52.9670    15.8200 h1         1 NF7       0.051700
     57 H122        69.4820    56.1080    14.8250 h1         1 NF7       0.065200
     58 H121        70.8130    55.6340    13.7840 h1         1 NF7       0.065200
     59 H231        74.0310    59.8050    21.4470 hc         1 NF7       0.077700
     60 H251        71.7550    60.3210    21.6470 hc         1 NF7       0.066200
     61 H252        71.6160    59.6760    20.0170 hc         1 NF7       0.066200
     62 H301        69.0780    61.0230    17.2260 ha         1 NF7       0.122000
     63 H311        68.4730    61.9260    19.4420 ha         1 NF7       0.112500
     64 H321        68.2040    60.3980    21.3750 ha         1 NF7       0.111000
     65 H331        68.5420    57.9610    21.0650 ha         1 NF7       0.112500
     66 H341        69.1310    57.0650    18.8430 ha         1 NF7       0.122000
     67 H352        66.5160    50.1690    10.7070 h1         1 NF7       0.032200
     68 H351        68.1030    50.3110    11.4950 h1         1 NF7       0.032200
     69 H361        73.3380    55.2720    14.4980 hc         1 NF7       0.046700
     70 H372        73.1880    55.5080    17.0000 hc         1 NF7       0.040533
     71 H371        73.8430    53.8770    17.1740 hc         1 NF7       0.040533
     72 H373        74.8360    55.1600    16.4710 hc         1 NF7       0.040533
     73 H381        66.4320    49.8010    13.1000 h1         1 NF7       0.041700
     74 H402        75.2410    53.6940    14.4090 hc         1 NF7       0.040533
     75 H403        74.2250    52.4100    15.0740 hc         1 NF7       0.040533
     76 H401        73.8690    53.0820    13.4760 hc         1 NF7       0.040533
     77 H161        71.8370    59.7530    16.4940 hn         1 NF7       0.322500
     78 H141        71.6490    58.8410    14.0930 ho         1 NF7       0.450000
     79 H391        64.6460    51.2620    13.3830 ho         1 NF7       0.446000
     80 H411        67.7370    52.0510    10.0140 ho         1 NF7       0.443000
     81 O41         67.2640    52.1070    10.8520 oh         1 NF7      -0.651000
@<TRIPOS>BOND
     1     1     2 1   
     2     1    16 1   
     3     1    34 1   
     4     1    41 1   
     5     2     8 1   
     6     2    31 1   
     7     2    42 1   
     8     3    31 1   
     9     3    35 2   
    10     3    36 1   
    11     4     5 1   
    12     4    17 1   
    13     4    36 1   
    14     4    43 1   
    15     5    37 1   
    16     5    44 1   
    17     5    45 1   
    18     6    17 1   
    19     6    37 1   
    20     6    38 1   
    21     6    46 1   
    22     7    18 1   
    23     7    38 1   
    24     7    47 1   
    25     7    48 1   
    26     8    19 1   
    27     8    49 1   
    28     8    50 1   
    29     9    10 ar  
    30     9    14 ar  
    31     9    28 1   
    32    10    11 ar  
    33    10    51 1   
    34    11    12 ar  
    35    11    52 1   
    36    12    13 ar  
    37    12    40 1   
    38    13    14 ar  
    39    13    53 1   
    40    14    54 1   
    41    15    26 1   
    42    15    30 1   
    43    15    55 1   
    44    15    56 1   
    45    16    30 1   
    46    16    57 1   
    47    16    58 1   
    48    17    18 1   
    49    17    59 1   
    50    18    60 1   
    51    18    61 1   
    52    19    20 ar  
    53    19    24 ar  
    54    20    21 ar  
    55    20    62 1   
    56    21    22 ar  
    57    21    63 1   
    58    22    23 ar  
    59    22    64 1   
    60    23    24 ar  
    61    23    65 1   
    62    24    66 1   
    63    25    28 1   
    64    25    67 1   
    65    25    68 1   
    66    25    81 1   
    67    26    27 1   
    68    26    29 1   
    69    26    69 1   
    70    27    70 1   
    71    27    71 1   
    72    27    72 1   
    73    28    39 1   
    74    28    73 1   
    75    29    74 1   
    76    29    75 1   
    77    29    76 1   
    78    30    40 1   
    79    31    77 1   
    80    32    40 2   
    81    33    40 2   
    82    34    78 1   
    83    39    79 1   
    84    80    81 1   
@<TRIPOS>SUBSTRUCTURE
     1 NF7         1 TEMP              0 ****  ****    0 ROOT
