@<TRIPOS>MOLECULE
NF7
   81    84     1     0     0
SMALL
No Charge or Current Charge


@<TRIPOS>ATOM
      1 C13         71.2410    56.9160    15.3940 c3         1 NF7       0.156300
      2 C15         70.8740    57.6610    16.7160 c3         1 NF7       0.097700
      3 C17         72.7980    58.6870    17.9700 c          1 NF7       0.634100
      4 C20         74.3750    60.0660    19.1110 c5         1 NF7       0.160300
      5 C21         75.3390    61.2040    18.6800 c5         1 NF7       0.152600
      6 C24         74.1190    62.1750    20.3850 c5         1 NF7       0.367300
      7 C26         71.8670    62.0370    19.8710 c5         1 NF7       0.149600
      8 C28         69.4260    58.2220    16.7780 c3         1 NF7      -0.040100
      9 C01         67.3430    51.7000    13.3610 ca         1 NF7      -0.063300
     10 C02         66.9770    53.0070    13.7450 ca         1 NF7      -0.113500
     11 C03         67.6100    53.6420    14.8270 ca         1 NF7      -0.018000
     12 C04         68.6250    52.9740    15.5420 ca         1 NF7      -0.312500
     13 C05         68.9890    51.6640    15.1700 ca         1 NF7      -0.018000
     14 C06         68.3530    51.0350    14.0870 ca         1 NF7      -0.113500
     15 C11         71.8060    53.5090    15.6930 c3         1 NF7       0.204800
     16 C12         70.4790    55.5680    15.2010 c3         1 NF7       0.211800
     17 C23         73.7610    60.6520    20.4490 c5         1 NF7      -0.141700
     18 C25         72.1880    60.6600    20.4950 c5         1 NF7      -0.093400
     19 C29         69.1170    58.9210    18.1010 ca         1 NF7      -0.085300
     20 C30         68.8360    60.3020    18.1310 ca         1 NF7      -0.101500
     21 C31         68.5520    60.9420    19.3500 ca         1 NF7      -0.116000
     22 C32         68.5520    60.2080    20.5470 ca         1 NF7      -0.115000
     23 C33         68.8310    58.8310    20.5240 ca         1 NF7      -0.116000
     24 C34         69.1090    58.1900    19.3050 ca         1 NF7      -0.101500
     25 C35         67.1540    51.4950    10.7890 c3         1 NF7       0.170600
     26 C36         73.2310    54.0480    15.3910 c3         1 NF7      -0.063700
     27 C37         73.9120    54.6320    16.6520 c3         1 NF7      -0.091600
     28 C38         66.6580    50.9950    12.1850 c3         1 NF7       0.212600
     29 C40         74.1120    52.9490    14.7540 c3         1 NF7      -0.091600
     30 N10         70.8150    54.5020    16.1940 n3         1 NF7      -0.743500
     31 N16         71.8350    58.7380    17.0040 ns         1 NF7      -0.501900
     32 O08         68.6230    54.8910    17.4220 o          1 NF7      -0.544500
     33 O09         69.9610    52.7710    17.8570 o          1 NF7      -0.544500
     34 O14         71.0240    57.7700    14.2520 oh         1 NF7      -0.671000
     35 O18         73.0420    57.7160    18.6690 o          1 NF7      -0.539000
     36 O19         73.3880    59.9170    18.0470 os         1 NF7      -0.459100
     37 O22         74.6550    62.4070    19.0720 os         1 NF7      -0.467000
     38 O27         72.8660    62.8770    20.4770 os         1 NF7      -0.445000
     39 O39         65.2270    51.0990    12.2970 oh         1 NF7      -0.644000
     40 S07         69.4480    53.7840    16.9280 sy         1 NF7       1.191600
     41 H131        72.3090    56.6800    15.4530 h1         1 NF7       0.054700
     42 H151        70.9600    56.9170    17.5200 h1         1 NF7       0.101700
     43 H201        74.9330    59.1310    19.2600 h1         1 NF7       0.086700
     44 H211        75.5370    61.2140    17.6000 h1         1 NF7       0.062200
     45 H212        76.2970    61.1430    19.2160 h1         1 NF7       0.062200
     46 H241        74.8260    62.4860    21.1670 h2         1 NF7       0.081700
     47 H261        70.8620    62.4000    20.1240 h1         1 NF7       0.057700
     48 H262        71.9880    62.0440    18.7790 h1         1 NF7       0.057700
     49 H282        69.2720    58.9150    15.9420 hc         1 NF7       0.065200
     50 H281        68.7070    57.4110    16.6280 hc         1 NF7       0.065200
     51 H021        66.1980    53.5360    13.2000 ha         1 NF7       0.126000
     52 H031        67.3050    54.6500    15.1040 ha         1 NF7       0.133500
     53 H051        69.7650    51.1290    15.7160 ha         1 NF7       0.133500
     54 H061        68.6490    50.0260    13.8120 ha         1 NF7       0.126000
     55 H111        71.4180    53.0370    14.7810 h1         1 NF7       0.051700
     56 H112        71.9390    52.7020    16.4260 h1         1 NF7       0.051700
     57 H122        69.4080    55.8040    15.2110 h1         1 NF7       0.065200
     58 H121        70.6800    55.2030    14.1850 h1         1 NF7       0.065200
     59 H231        74.1980    60.1720    21.3320 hc         1 NF7       0.077700
     60 H251        71.8350    60.6350    21.5320 hc         1 NF7       0.066200
     61 H252        71.6920    59.8280    19.9900 hc         1 NF7       0.066200
     62 H301        68.8360    60.8820    17.2100 ha         1 NF7       0.122000
     63 H311        68.3330    62.0080    19.3660 ha         1 NF7       0.112500
     64 H321        68.3360    60.7040    21.4910 ha         1 NF7       0.111000
     65 H331        68.8300    58.2610    21.4500 ha         1 NF7       0.112500
     66 H341        69.3180    57.1220    19.2970 ha         1 NF7       0.122000
     67 H352        66.6930    50.8700    10.0120 h1         1 NF7       0.032200
     68 H351        68.2390    51.3330    10.7300 h1         1 NF7       0.032200
     69 H361        73.1480    54.8440    14.6430 hc         1 NF7       0.046700
     70 H372        73.2980    55.4150    17.1080 hc         1 NF7       0.040533
     71 H371        74.0730    53.8500    17.4050 hc         1 NF7       0.040533
     72 H373        74.8850    55.0700    16.3990 hc         1 NF7       0.040533
     73 H381        66.9290    49.9320    12.2400 h1         1 NF7       0.041700
     74 H402        75.1030    53.3460    14.5010 hc         1 NF7       0.040533
     75 H403        74.2450    52.1050    15.4420 hc         1 NF7       0.040533
     76 H401        73.6550    52.5710    13.8310 hc         1 NF7       0.040533
     77 H161        71.7200    59.6350    16.5530 hn         1 NF7       0.322500
     78 H141        71.6860    58.4930    14.3050 ho         1 NF7       0.450000
     79 H391        65.0050    50.8700    13.2250 ho         1 NF7       0.446000
     80 H411        67.1590    53.0900     9.6360 ho         1 NF7       0.443000
     81 O41         66.8520    52.8850    10.5470 oh         1 NF7      -0.651000
@<TRIPOS>BOND
     1     1     2 1   
     2     1    16 1   
     3     1    34 1   
     4     1    41 1   
     5     2     8 1   
     6     2    31 1   
     7     2    42 1   
     8     3    31 1   
     9     3    35 2   
    10     3    36 1   
    11     4     5 1   
    12     4    17 1   
    13     4    36 1   
    14     4    43 1   
    15     5    37 1   
    16     5    44 1   
    17     5    45 1   
    18     6    17 1   
    19     6    37 1   
    20     6    38 1   
    21     6    46 1   
    22     7    18 1   
    23     7    38 1   
    24     7    47 1   
    25     7    48 1   
    26     8    19 1   
    27     8    49 1   
    28     8    50 1   
    29     9    10 ar  
    30     9    14 ar  
    31     9    28 1   
    32    10    11 ar  
    33    10    51 1   
    34    11    12 ar  
    35    11    52 1   
    36    12    13 ar  
    37    12    40 1   
    38    13    14 ar  
    39    13    53 1   
    40    14    54 1   
    41    15    26 1   
    42    15    30 1   
    43    15    55 1   
    44    15    56 1   
    45    16    30 1   
    46    16    57 1   
    47    16    58 1   
    48    17    18 1   
    49    17    59 1   
    50    18    60 1   
    51    18    61 1   
    52    19    20 ar  
    53    19    24 ar  
    54    20    21 ar  
    55    20    62 1   
    56    21    22 ar  
    57    21    63 1   
    58    22    23 ar  
    59    22    64 1   
    60    23    24 ar  
    61    23    65 1   
    62    24    66 1   
    63    25    28 1   
    64    25    67 1   
    65    25    68 1   
    66    25    81 1   
    67    26    27 1   
    68    26    29 1   
    69    26    69 1   
    70    27    70 1   
    71    27    71 1   
    72    27    72 1   
    73    28    39 1   
    74    28    73 1   
    75    29    74 1   
    76    29    75 1   
    77    29    76 1   
    78    30    40 1   
    79    31    77 1   
    80    32    40 2   
    81    33    40 2   
    82    34    78 1   
    83    39    79 1   
    84    80    81 1   
@<TRIPOS>SUBSTRUCTURE
     1 NF7         1 TEMP              0 ****  ****    0 ROOT
