@<TRIPOS>MOLECULE
NF8
   22    22     1     0     0
SMALL
No Charge or Current Charge


@<TRIPOS>ATOM
      1 O1          24.6720    11.6800    22.6810 oh         1 NF8      -0.715000
      2 C2          24.6210    10.4130    23.3680 c3         1 NF8       0.164600
      3 C3          24.2270     9.2120    22.4420 c6         1 NF8       0.140300
      4 O2          22.9050     9.4770    21.9030 os         1 NF8      -0.430000
      5 C4          22.3540     8.3940    21.1170 c6         1 NF8       0.124600
      6 C5          23.2640     8.0910    19.9000 c6         1 NF8       0.163300
      7 F1          22.7600     6.9440    19.2460 f          1 NF8      -0.253000
      8 C6          24.7220     7.8130    20.3690 c6         1 NF8       0.145300
      9 O3          25.6220     7.6320    19.2610 oh         1 NF8      -0.645000
     10 C7          25.2350     8.9790    21.2670 c6         1 NF8       0.103300
     11 O4          26.5700     8.6800    21.7380 oh         1 NF8      -0.727000
     12 H5          24.7720    12.3780    23.3710 ho         1 NF8       0.506000
     13 H7          23.8840    10.4590    24.1810 h1         1 NF8       0.032700
     14 H6          25.5910    10.1930    23.8320 h1         1 NF8       0.032700
     15 H8          24.1770     8.3070    23.0650 h1         1 NF8       0.049700
     16 H10         21.3510     8.6790    20.7690 h1         1 NF8       0.063200
     17 H9          22.2560     7.5000    21.7500 h1         1 NF8       0.063200
     18 H11         23.2380     8.9290    19.1890 h1         1 NF8       0.078700
     19 H12         24.7080     6.8990    20.9820 h1         1 NF8       0.051700
     20 H13         26.5200     7.7340    19.6540 ho         1 NF8       0.460000
     21 H14         25.2500     9.8940    20.6530 h1         1 NF8       0.074700
     22 H15         26.9660     9.5280    22.0500 ho         1 NF8       0.515000
@<TRIPOS>BOND
     1     1     2 1   
     2     1    12 1   
     3     2     3 1   
     4     2    13 1   
     5     2    14 1   
     6     3     4 1   
     7     3    10 1   
     8     3    15 1   
     9     4     5 1   
    10     5     6 1   
    11     5    16 1   
    12     5    17 1   
    13     6     7 1   
    14     6     8 1   
    15     6    18 1   
    16     8     9 1   
    17     8    10 1   
    18     8    19 1   
    19     9    20 1   
    20    10    11 1   
    21    10    21 1   
    22    11    22 1   
@<TRIPOS>SUBSTRUCTURE
     1 NF8         1 TEMP              0 ****  ****    0 ROOT
