@<TRIPOS>MOLECULE
NF8
   22    22     1     0     0
SMALL
abcg2


@<TRIPOS>ATOM
      1 O1          24.7160    11.5610    22.6290 oh         1 NF8      -0.715000
      2 C2          24.5440    10.3730    23.3650 c3         1 NF8       0.164600
      3 C3          24.1840     9.2380    22.4330 c6         1 NF8       0.140300
      4 O2          22.8980     9.4790    21.8930 os         1 NF8      -0.430000
      5 C4          22.4180     8.3900    21.1460 c6         1 NF8       0.124600
      6 C5          23.3220     8.1200    19.9510 c6         1 NF8       0.163300
      7 F1          22.8350     7.0000    19.2810 f          1 NF8      -0.253000
      8 C6          24.7420     7.8710    20.4100 c6         1 NF8       0.145300
      9 O3          25.5650     7.7170    19.2840 oh         1 NF8      -0.645000
     10 C7          25.1840     9.0410    21.2860 c6         1 NF8       0.103300
     11 O4          26.4730     8.7360    21.7670 oh         1 NF8      -0.727000
     12 H5          24.9840    12.2540    23.2390 ho         1 NF8       0.506000
     13 H7          23.7510    10.4680    24.1180 h1         1 NF8       0.032700
     14 H6          25.4540    10.0890    23.9050 h1         1 NF8       0.032700
     15 H8          24.1690     8.3200    23.0420 h1         1 NF8       0.049700
     16 H10         21.4110     8.6390    20.8090 h1         1 NF8       0.063200
     17 H9          22.3550     7.4820    21.7640 h1         1 NF8       0.063200
     18 H11         23.2940     8.9620    19.2530 h1         1 NF8       0.078700
     19 H12         24.7460     6.9590    21.0320 h1         1 NF8       0.051700
     20 H13         26.4700     7.6120    19.5950 ho         1 NF8       0.460000
     21 H14         25.1990     9.9480    20.6680 h1         1 NF8       0.074700
     22 H15         26.9500     9.5580    21.9180 ho         1 NF8       0.515000
@<TRIPOS>BOND
     1     1     2 1   
     2     1    12 1   
     3     2     3 1   
     4     2    13 1   
     5     2    14 1   
     6     3     4 1   
     7     3    10 1   
     8     3    15 1   
     9     4     5 1   
    10     5     6 1   
    11     5    16 1   
    12     5    17 1   
    13     6     7 1   
    14     6     8 1   
    15     6    18 1   
    16     8     9 1   
    17     8    10 1   
    18     8    19 1   
    19     9    20 1   
    20    10    11 1   
    21    10    21 1   
    22    11    22 1   
@<TRIPOS>SUBSTRUCTURE
     1 NF8         1 TEMP              0 ****  ****    0 ROOT
