@<TRIPOS>MOLECULE
NF9
   58    60     1     0     0
SMALL
No Charge or Current Charge


@<TRIPOS>ATOM
      1 C4         -19.5250   -25.0660    -0.9540 c3         1 NF9      -0.097400
      2 C14        -20.0440   -20.7210     2.1230 ca         1 NF9      -0.056000
      3 C5         -18.5950   -23.9630    -1.5510 c6         1 NF9      -0.057700
      4 C6         -18.9290   -22.5470    -1.0130 c6         1 NF9      -0.093900
      5 C11        -17.2810   -20.8680     2.6040 ca         1 NF9      -0.189500
      6 C7         -17.9580   -21.4780    -1.5710 c6         1 NF9       0.100000
      7 C8         -15.8310   -21.2590    -0.2150 c          1 NF9       0.602100
      8 C13        -19.5440   -21.6290     3.0710 ca         1 NF9       0.064000
      9 N2         -16.5360   -21.8270    -1.3060 n          1 NF9      -0.397800
     10 N3         -16.9170   -19.1600     0.9040 nu         1 NF9      -0.991200
     11 O1         -21.0840   -27.0150    -3.1820 o          1 NF9      -0.569100
     12 C1         -21.3340   -25.8730    -3.5450 c          1 NF9       0.596100
     13 C2         -21.6550   -25.4960    -5.0010 c3         1 NF9       0.020600
     14 C3         -21.0380   -24.9060    -1.2320 c3         1 NF9       0.108000
     15 O2         -15.2660   -22.0130     0.5750 o          1 NF9      -0.607100
     16 C9         -15.8170   -19.6630     0.0090 c6         1 NF9       0.194200
     17 C10        -17.7730   -19.9810     1.6340 ca         1 NF9       0.339000
     18 C12        -18.1630   -21.6990     3.3190 ca         1 NF9      -0.056000
     19 C15        -19.1550   -19.8940     1.4110 ca         1 NF9      -0.189500
     20 C16        -15.9540   -18.8970    -1.3560 c6         1 NF9      -0.124400
     21 C17        -15.5880   -17.3940    -1.2630 c6         1 NF9       0.152100
     22 O3         -14.2800   -17.2350    -0.6880 os         1 NF9      -0.441000
     23 C18        -14.1870   -17.7450     0.6540 c6         1 NF9       0.152100
     24 C19        -14.4450   -19.2670     0.6460 c6         1 NF9      -0.124400
     25 C20        -16.1770   -23.1750    -1.8190 c6         1 NF9       0.100000
     26 C21        -17.1050   -24.2800    -1.2610 c6         1 NF9      -0.093900
     27 H1         -19.3880   -25.1140     0.1330 hc         1 NF9       0.059200
     28 H2         -19.2130   -26.0460    -1.3360 hc         1 NF9       0.059200
     29 H3         -21.1140   -20.6620     1.9380 ha         1 NF9       0.126500
     30 H4         -18.7410   -23.9710    -2.6400 hc         1 NF9       0.044700
     31 H5         -18.8740   -22.5480     0.0840 hc         1 NF9       0.052200
     32 H6         -19.9570   -22.2650    -1.2760 hc         1 NF9       0.052200
     33 H7         -16.2160   -20.9160     2.8050 ha         1 NF9       0.120500
     34 H8         -18.1050   -21.3760    -2.6550 h1         1 NF9       0.053200
     35 H9         -18.2200   -20.5190    -1.1120 h1         1 NF9       0.053200
     36 H10        -21.5770   -23.9010    -3.0450 hn         1 NF9       0.310500
     37 H11        -17.3810   -18.3120     0.5810 hn         1 NF9       0.485000
     38 H12        -22.6640   -25.0700    -5.0380 h1         1 NF9       0.075700
     39 H13        -20.9350   -24.7390    -5.3340 h1         1 NF9       0.075700
     40 Cl1        -21.5880   -26.8910    -6.1820 cl         1 NF9      -0.225000
     41 H15        -21.4120   -24.0030    -0.7330 h1         1 NF9       0.054200
     42 H16        -21.5780   -25.7620    -0.8060 h1         1 NF9       0.054200
     43 H17        -17.7790   -22.3940     4.0610 ha         1 NF9       0.126500
     44 H18        -19.5450   -19.1980     0.6740 ha         1 NF9       0.120500
     45 H19        -16.9640   -18.9710    -1.7730 hc         1 NF9       0.071200
     46 H20        -15.2890   -19.3630    -2.0960 hc         1 NF9       0.071200
     47 H21        -15.5920   -16.9470    -2.2670 h1         1 NF9       0.046700
     48 H22        -16.3230   -16.8520    -0.6500 h1         1 NF9       0.046700
     49 H23        -13.1810   -17.5370     1.0450 h1         1 NF9       0.046700
     50 H24        -14.9160   -17.2290     1.2960 h1         1 NF9       0.046700
     51 H25        -14.3790   -19.6510     1.6720 hc         1 NF9       0.071200
     52 H26        -13.6310   -19.7520     0.0890 hc         1 NF9       0.071200
     53 H27        -16.2480   -23.1640    -2.9160 h1         1 NF9       0.053200
     54 H28        -15.1320   -23.4090    -1.5700 h1         1 NF9       0.053200
     55 H29        -16.8300   -25.2470    -1.7040 hc         1 NF9       0.052200
     56 H30        -16.9450   -24.3750    -0.1780 hc         1 NF9       0.052200
     57 Cl2        -20.6500   -22.6730     3.9540 cl         1 NF9      -0.209000
     58 N1         -21.3510   -24.8120    -2.6620 ns         1 NF9      -0.511900
@<TRIPOS>BOND
     1     1     3 1   
     2     1    14 1   
     3     1    27 1   
     4     1    28 1   
     5     2     8 ar  
     6     2    19 ar  
     7     2    29 1   
     8     3     4 1   
     9     3    26 1   
    10     3    30 1   
    11     4     6 1   
    12     4    31 1   
    13     4    32 1   
    14     5    17 ar  
    15     5    18 ar  
    16     5    33 1   
    17     6     9 1   
    18     6    34 1   
    19     6    35 1   
    20     7     9 1   
    21     7    15 2   
    22     7    16 1   
    23     8    18 ar  
    24     8    57 1   
    25     9    25 1   
    26    10    16 1   
    27    10    17 1   
    28    10    37 1   
    29    11    12 2   
    30    12    13 1   
    31    12    58 1   
    32    13    38 1   
    33    13    39 1   
    34    13    40 1   
    35    14    41 1   
    36    14    42 1   
    37    14    58 1   
    38    16    20 1   
    39    16    24 1   
    40    17    19 ar  
    41    18    43 1   
    42    19    44 1   
    43    20    21 1   
    44    20    45 1   
    45    20    46 1   
    46    21    22 1   
    47    21    47 1   
    48    21    48 1   
    49    22    23 1   
    50    23    24 1   
    51    23    49 1   
    52    23    50 1   
    53    24    51 1   
    54    24    52 1   
    55    25    26 1   
    56    25    53 1   
    57    25    54 1   
    58    26    55 1   
    59    26    56 1   
    60    36    58 1   
@<TRIPOS>SUBSTRUCTURE
     1 NF9         1 TEMP              0 ****  ****    0 ROOT
