@<TRIPOS>MOLECULE
NF9
   58    60     1     0     0
SMALL
abcg2


@<TRIPOS>ATOM
      1 C4         -19.7360   -24.8340    -0.9720 c3         1 NF9      -0.097400
      2 C14        -19.5870   -20.3540     3.0270 ca         1 NF9      -0.056000
      3 C5         -18.6500   -23.9430    -1.5660 c6         1 NF9      -0.057700
      4 C6         -18.8910   -22.4550    -1.3230 c6         1 NF9      -0.093900
      5 C11        -17.1190   -21.2660     2.1430 ca         1 NF9      -0.189500
      6 C7         -17.7400   -21.6120    -1.8570 c6         1 NF9       0.100000
      7 C8         -15.5810   -21.2920    -0.5810 c          1 NF9       0.602100
      8 C13        -18.9370   -21.3700     3.7120 ca         1 NF9       0.064000
      9 N2         -16.4700   -22.0280    -1.2810 n          1 NF9      -0.397800
     10 N3         -17.2380   -19.6550     0.3070 nu         1 NF9      -0.991200
     11 O1         -21.3780   -26.8690    -3.1270 o          1 NF9      -0.569100
     12 C1         -21.3740   -25.7580    -3.6260 c          1 NF9       0.596100
     13 C2         -21.5680   -25.5370    -5.1190 c3         1 NF9       0.020600
     14 C3         -21.1480   -24.5690    -1.4870 c3         1 NF9       0.108000
     15 O2         -14.5000   -21.7550    -0.2330 o          1 NF9      -0.607100
     16 C9         -15.9000   -19.8170    -0.2170 c6         1 NF9       0.194200
     17 C10        -17.7510   -20.2340     1.4370 ca         1 NF9       0.339000
     18 C12        -17.7080   -21.8240     3.2680 ca         1 NF9      -0.056000
     19 C15        -19.0000   -19.7960     1.9090 ca         1 NF9      -0.189500
     20 C16        -15.7460   -18.9600    -1.4920 c6         1 NF9      -0.124400
     21 C17        -15.7950   -17.4660    -1.1960 c6         1 NF9       0.152100
     22 O3         -14.8480   -17.0750    -0.2340 os         1 NF9      -0.441000
     23 C18        -15.0110   -17.7830     0.9750 c6         1 NF9       0.152100
     24 C19        -14.8510   -19.2810     0.7790 c6         1 NF9      -0.124400
     25 C20        -16.1790   -23.4280    -1.5650 c6         1 NF9       0.100000
     26 C21        -17.2790   -24.3260    -1.0160 c6         1 NF9      -0.093900
     27 H1         -19.7520   -24.7110     0.1160 hc         1 NF9       0.059200
     28 H2         -19.4790   -25.8810    -1.1580 hc         1 NF9       0.059200
     29 H3         -20.5490   -19.9900     3.3630 ha         1 NF9       0.126500
     30 H4         -18.6250   -24.1030    -2.6520 hc         1 NF9       0.044700
     31 H5         -19.0150   -22.2670    -0.2510 hc         1 NF9       0.052200
     32 H6         -19.8080   -22.1190    -1.8130 hc         1 NF9       0.052200
     33 H7         -16.1580   -21.6550     1.8390 ha         1 NF9       0.120500
     34 H8         -17.6720   -21.7420    -2.9430 h1         1 NF9       0.053200
     35 H9         -17.9330   -20.5650    -1.6730 h1         1 NF9       0.053200
     36 H10        -21.2080   -23.7450    -3.4310 hn         1 NF9       0.310500
     37 H11        -17.7950   -18.9160    -0.0880 hn         1 NF9       0.485000
     38 H12        -22.6350   -25.4880    -5.3400 h1         1 NF9       0.075700
     39 H13        -21.1050   -24.6160    -5.4660 h1         1 NF9       0.075700
     40 CL1        -20.8790   -26.8830    -6.0560 cl         1 NF9      -0.225000
     41 H15        -21.4920   -23.5840    -1.1750 h1         1 NF9       0.054200
     42 H16        -21.8380   -25.2920    -1.0500 h1         1 NF9       0.054200
     43 H17        -17.1930   -22.6170     3.7940 ha         1 NF9       0.126500
     44 H18        -19.5180   -19.0000     1.3850 ha         1 NF9       0.120500
     45 H19        -16.5120   -19.1910    -2.2360 hc         1 NF9       0.071200
     46 H20        -14.7820   -19.2060    -1.9430 hc         1 NF9       0.071200
     47 H21        -15.5750   -16.9140    -2.1110 h1         1 NF9       0.046700
     48 H22        -16.8070   -17.1680    -0.8840 h1         1 NF9       0.046700
     49 H23        -14.2450   -17.4190     1.6610 h1         1 NF9       0.046700
     50 H24        -15.9870   -17.5540     1.4270 h1         1 NF9       0.046700
     51 H25        -14.9310   -19.7730     1.7500 hc         1 NF9       0.071200
     52 H26        -13.8470   -19.4830     0.4050 hc         1 NF9       0.071200
     53 H27        -16.1030   -23.5540    -2.6520 h1         1 NF9       0.053200
     54 H28        -15.2160   -23.6930    -1.1390 h1         1 NF9       0.053200
     55 H29        -17.0470   -25.3640    -1.2690 hc         1 NF9       0.052200
     56 H30        -17.2840   -24.2570     0.0770 hc         1 NF9       0.052200
     57 CL2        -19.6630   -22.0670     5.1280 cl         1 NF9      -0.209000
     58 N1         -21.2640   -24.6180    -2.9320 ns         1 NF9      -0.511900
@<TRIPOS>BOND
     1     1     3 1   
     2     1    14 1   
     3     1    27 1   
     4     1    28 1   
     5     2     8 ar  
     6     2    19 ar  
     7     2    29 1   
     8     3     4 1   
     9     3    26 1   
    10     3    30 1   
    11     4     6 1   
    12     4    31 1   
    13     4    32 1   
    14     5    17 ar  
    15     5    18 ar  
    16     5    33 1   
    17     6     9 1   
    18     6    34 1   
    19     6    35 1   
    20     7     9 1   
    21     7    15 2   
    22     7    16 1   
    23     8    18 ar  
    24     8    57 1   
    25     9    25 1   
    26    10    16 1   
    27    10    17 1   
    28    10    37 1   
    29    11    12 2   
    30    12    13 1   
    31    12    58 1   
    32    13    38 1   
    33    13    39 1   
    34    13    40 1   
    35    14    41 1   
    36    14    42 1   
    37    14    58 1   
    38    16    20 1   
    39    16    24 1   
    40    17    19 ar  
    41    18    43 1   
    42    19    44 1   
    43    20    21 1   
    44    20    45 1   
    45    20    46 1   
    46    21    22 1   
    47    21    47 1   
    48    21    48 1   
    49    22    23 1   
    50    23    24 1   
    51    23    49 1   
    52    23    50 1   
    53    24    51 1   
    54    24    52 1   
    55    25    26 1   
    56    25    53 1   
    57    25    54 1   
    58    26    55 1   
    59    26    56 1   
    60    36    58 1   
@<TRIPOS>SUBSTRUCTURE
     1 NF9         1 TEMP              0 ****  ****    0 ROOT
