@<TRIPOS>MOLECULE
NFA
   24    24     1     0     0
SMALL
No Charge or Current Charge


@<TRIPOS>ATOM
      1 N            3.9750     9.0510   103.3720 n8         1 NFA      -0.873800
      2 CA           3.7570     9.0180   104.8580 c3         1 NFA       0.087500
      3 C            2.2800     8.7550   105.3410 c          1 NFA       0.678100
      4 O            1.2980     8.8350   104.6160 o          1 NFA      -0.598100
      5 CB           4.3520    10.2950   105.5110 c3         1 NFA      -0.072100
      6 CG           5.8080    10.5550   105.1280 ca         1 NFA      -0.088300
      7 CD1          6.8280     9.7090   105.6060 ca         1 NFA      -0.128000
      8 CD2          6.1460    11.6440   104.3000 ca         1 NFA      -0.128000
      9 CE1          8.1690     9.9450   105.2560 ca         1 NFA      -0.124000
     10 CE2          7.4870    11.8800   103.9500 ca         1 NFA      -0.124000
     11 CZ           8.4990    11.0310   104.4270 ca         1 NFA      -0.125000
     12 NXT          2.1160     8.4230   106.6440 nt         1 NFA      -0.677000
     13 H            4.9270     9.3880   103.1930 hn         1 NFA       0.354300
     14 H2           3.3710     9.7710   102.9620 hn         1 NFA       0.354300
     15 HA           4.3410     8.1670   105.2370 h1         1 NFA       0.063700
     16 HB2          3.7260    11.1550   105.2430 hc         1 NFA       0.060200
     17 HB3          4.2820    10.2060   106.6020 hc         1 NFA       0.060200
     18 HD1          6.5830     8.8670   106.2500 ha         1 NFA       0.128000
     19 HD2          5.3700    12.3090   103.9250 ha         1 NFA       0.128000
     20 HE1          8.9530     9.2870   105.6280 ha         1 NFA       0.132500
     21 HE2          7.7410    12.7220   103.3080 ha         1 NFA       0.132500
     22 HZ           9.5380    11.2140   104.1560 ha         1 NFA       0.133000
     23 HXT1         2.9170     8.3490   107.2540 hn         1 NFA       0.313000
     24 HXT2         1.1850     8.2470   106.9920 hn         1 NFA       0.313000
@<TRIPOS>BOND
     1     1     2 1   
     2     1    13 1   
     3     1    14 1   
     4     2     3 1   
     5     2     5 1   
     6     2    15 1   
     7     3     4 2   
     8     3    12 1   
     9     5     6 1   
    10     5    16 1   
    11     5    17 1   
    12     6     7 ar  
    13     6     8 ar  
    14     7     9 ar  
    15     7    18 1   
    16     8    10 ar  
    17     8    19 1   
    18     9    11 ar  
    19     9    20 1   
    20    10    11 ar  
    21    10    21 1   
    22    11    22 1   
    23    12    23 1   
    24    12    24 1   
@<TRIPOS>SUBSTRUCTURE
     1 NFA         1 TEMP              0 ****  ****    0 ROOT
