@<TRIPOS>MOLECULE
NFA
   24    24     1     0     0
SMALL
bcc


@<TRIPOS>ATOM
      1 N            3.7660     9.1930   103.4140 n8         1 NFA      -0.873800
      2 CA           3.7850     9.1190   104.8580 c3         1 NFA       0.087500
      3 C            2.3600     8.9180   105.3600 c          1 NFA       0.678100
      4 O            1.4160     9.4920   104.8400 o          1 NFA      -0.598100
      5 CB           4.3710    10.3580   105.5780 c3         1 NFA      -0.072100
      6 CG           5.8010    10.5990   105.1950 ca         1 NFA      -0.088300
      7 CD1          6.8300     9.9050   105.8310 ca         1 NFA      -0.128000
      8 CD2          6.1340    11.4800   104.1680 ca         1 NFA      -0.128000
      9 CE1          8.1530    10.0890   105.4570 ca         1 NFA      -0.124000
     10 CE2          7.4580    11.6680   103.7900 ca         1 NFA      -0.124000
     11 CZ           8.4720    10.9730   104.4330 ca         1 NFA      -0.125000
     12 NXT          2.2390     8.1160   106.4280 nt         1 NFA      -0.677000
     13 H            4.7100     9.2990   103.0660 hn         1 NFA       0.354300
     14 H2           3.2590    10.0200   103.1210 hn         1 NFA       0.354300
     15 HA           4.3900     8.2510   105.1400 h1         1 NFA       0.063700
     16 HB2          3.7620    11.2300   105.3240 hc         1 NFA       0.060200
     17 HB3          4.2950    10.2150   106.6590 hc         1 NFA       0.060200
     18 HD1          6.5910     9.2160   106.6340 ha         1 NFA       0.128000
     19 HD2          5.3500    12.0350   103.6660 ha         1 NFA       0.128000
     20 HE1          8.9370     9.5440   105.9670 ha         1 NFA       0.132500
     21 HE2          7.6950    12.3610   102.9930 ha         1 NFA       0.132500
     22 HZ           9.5040    11.1200   104.1420 ha         1 NFA       0.133000
     23 HXT1         3.0280     7.6400   106.8290 hn         1 NFA       0.313000
     24 HXT2         1.3430     7.9820   106.8680 hn         1 NFA       0.313000
@<TRIPOS>BOND
     1     1     2 1   
     2     1    13 1   
     3     1    14 1   
     4     2     3 1   
     5     2     5 1   
     6     2    15 1   
     7     3     4 2   
     8     3    12 1   
     9     5     6 1   
    10     5    16 1   
    11     5    17 1   
    12     6     7 ar  
    13     6     8 ar  
    14     7     9 ar  
    15     7    18 1   
    16     8    10 ar  
    17     8    19 1   
    18     9    11 ar  
    19     9    20 1   
    20    10    11 ar  
    21    10    21 1   
    22    11    22 1   
    23    12    23 1   
    24    12    24 1   
@<TRIPOS>SUBSTRUCTURE
     1 NFA         1 TEMP              0 ****  ****    0 ROOT
