@<TRIPOS>MOLECULE
NFD
   70    74     1     0     0
SMALL
bcc


@<TRIPOS>ATOM
      1 PA          -0.0860    -2.0920     1.5670 p5         1 NFD       1.484800
      2 PN          -0.1900    -0.3550    -0.8190 p5         1 NFD       1.466800
      3 N1A          3.6560     3.2060    -2.0970 nb         1 NFD      -0.875000
      4 O1A         -1.3650    -2.8310     1.3150 o          1 NFD      -0.865500
      5 NN1         -4.6770    -0.5970    -0.1410 na         1 NFD      -0.010100
      6 O1N         -1.1310     0.5360    -0.0700 o          1 NFD      -0.849500
      7 C2A          4.4530     2.1660    -2.1520 ca         1 NFD       0.919200
      8 F2A          5.3040     2.1880    -3.1790 f          1 NFD      -0.235200
      9 O2A          0.0180    -1.0770     2.6640 o          1 NFD      -0.865500
     10 C2N         -5.6280     0.2850     0.2080 ca         1 NFD      -0.034300
     11 O2N          0.8950     0.1950    -1.6860 o          1 NFD      -0.849500
     12 O3           0.4780    -1.4780     0.1560 os         1 NFD      -0.692800
     13 N3A          4.5560     1.1210    -1.3810 nb         1 NFD      -0.762000
     14 C3N         -5.5230     1.0090     1.3700 ca         1 NFD      -0.194600
     15 C4A          3.6690     1.1870    -0.3850 ca         1 NFD       0.511800
     16 C4N         -4.4150     0.7860     2.1920 ca         1 NFD      -0.039000
     17 C5A          2.7650     2.2090    -0.1610 ca         1 NFD      -0.206200
     18 C5N         -3.4620    -0.1340     1.8150 ca         1 NFD      -0.080000
     19 C6A          2.7720     3.2610    -1.0890 ca         1 NFD       0.811200
     20 N6A          1.9420     4.2990    -1.0150 nv         1 NFD      -0.963500
     21 C6N         -3.6110    -0.8260     0.6280 ca         1 NFD       0.094700
     22 N7A          1.9930     1.9400     0.9370 nc         1 NFD      -0.551100
     23 C7N         -6.6420     1.9620     1.6790 c          1 NFD       0.696700
     24 NN7         -6.3870     2.8880     2.6050 nt         1 NFD      -0.660000
     25 O7N         -7.7080     1.8580     1.0930 o          1 NFD      -0.612100
     26 C8A          2.4170     0.7890     1.3570 cd         1 NFD       0.426700
     27 N9A          3.4550     0.2860     0.6120 na         1 NFD      -0.249000
     28 C1'A         4.1650    -0.9540     0.8000 c5         1 NFD       0.272800
     29 C1'N        -4.8820    -1.3560    -1.4220 c5         1 NFD       0.232800
     30 C2'A         4.7150    -1.1380     2.2170 c5         1 NFD       0.046100
     31 O2'A         5.9710    -0.5320     2.3140 oh         1 NFD      -0.582800
     32 C2'N        -5.0240    -0.4000    -2.6220 c5         1 NFD       0.046100
     33 O2'N        -6.3750    -0.1900    -2.9110 oh         1 NFD      -0.595800
     34 C3'A         4.7260    -2.6650     2.3430 c5         1 NFD       0.078100
     35 O3'A         5.8290    -3.2160     1.6720 oh         1 NFD      -0.586800
     36 C3'N        -4.2490    -1.1600    -3.7100 c5         1 NFD       0.089100
     37 O3'N        -5.0350    -2.1730    -4.2720 oh         1 NFD      -0.578800
     38 C4'A         3.4530    -3.0260     1.5880 c5         1 NFD       0.115100
     39 O4'A         3.3270    -2.0460     0.5600 os         1 NFD      -0.343600
     40 C4'N        -3.1470    -1.8000    -2.8850 c5         1 NFD       0.126100
     41 O4'N        -3.8040    -2.1690    -1.6620 os         1 NFD      -0.335600
     42 C5'A         2.2390    -3.0370     2.5040 c3         1 NFD       0.199400
     43 O5'A         1.0490    -3.2600     1.7830 os         1 NFD      -0.554200
     44 C5'N        -1.9840    -0.8510    -2.6520 c3         1 NFD       0.185400
     45 O5'N        -1.0970    -1.4150    -1.7240 os         1 NFD      -0.543200
     46 HC2         -6.4690     0.3900    -0.4620 h4         1 NFD       0.197000
     47 HC4         -4.2990     1.3090     3.1310 ha         1 NFD       0.152000
     48 HC5         -2.5870    -0.3290     2.4170 ha         1 NFD       0.240000
     49 HAN6         1.2660     4.3670    -0.2750 hn         1 NFD       0.442300
     50 HANA         1.9820     5.0380    -1.6950 hn         1 NFD       0.442300
     51 HC6         -2.9010    -1.5790     0.3250 h4         1 NFD       0.287000
     52 HNN7        -5.4780     3.0310     3.0100 hn         1 NFD       0.323000
     53 HNNA        -7.1000     3.5580     2.8460 hn         1 NFD       0.323000
     54 HC8          1.9950     0.2460     2.1890 h5         1 NFD       0.100800
     55 HC1          4.9920    -0.9350     0.0830 h2         1 NFD       0.107700
     56 HC1A        -5.7900    -1.9450    -1.2630 h2         1 NFD       0.109700
     57 H1           4.0170    -0.7240     2.9540 h1         1 NFD       0.061700
     58 HO2          6.1870    -0.4130     3.2450 ho         1 NFD       0.400000
     59 HC2A        -4.5110     0.5440    -2.4060 h1         1 NFD       0.076700
     60 HO2A        -6.4660     0.6460    -3.3800 ho         1 NFD       0.423000
     61 HC3          4.6860    -2.9860     3.3920 h1         1 NFD       0.042700
     62 HO3          6.6030    -2.6820     1.8880 ho         1 NFD       0.408000
     63 HC3A        -3.8510    -0.4750    -4.4690 h1         1 NFD       0.066700
     64 HO3A        -5.8880    -1.7950    -4.5150 ho         1 NFD       0.411000
     65 H2           3.5480    -4.0060     1.1100 h1         1 NFD       0.094700
     66 HC4A        -2.7850    -2.7270    -3.3350 h1         1 NFD       0.125700
     67 H3           2.3680    -3.8590     3.2160 h1         1 NFD       0.019200
     68 HC5A         2.1820    -2.1180     3.0930 h1         1 NFD       0.019200
     69 HC5B        -1.4980    -0.6840    -3.6220 h1         1 NFD       0.020200
     70 HC5C        -2.3510     0.1260    -2.3130 h1         1 NFD       0.020200
@<TRIPOS>BOND
     1     1     4 1   
     2     1     9 1   
     3     1    12 1   
     4     1    43 1   
     5     2     6 1   
     6     2    11 1   
     7     2    12 1   
     8     2    45 1   
     9     3     7 ar  
    10     3    19 ar  
    11     5    10 1   
    12     5    21 2   
    13     5    29 1   
    14     7     8 1   
    15     7    13 ar  
    16    10    14 ar  
    17    10    46 1   
    18    13    15 ar  
    19    14    16 ar  
    20    14    23 1   
    21    15    17 ar  
    22    15    27 1   
    23    16    18 ar  
    24    16    47 1   
    25    17    19 ar  
    26    17    22 1   
    27    18    21 ar  
    28    18    48 1   
    29    19    20 1   
    30    20    49 1   
    31    20    50 1   
    32    21    51 1   
    33    22    26 2   
    34    23    24 1   
    35    23    25 2   
    36    24    52 1   
    37    24    53 1   
    38    26    27 1   
    39    26    54 1   
    40    27    28 1   
    41    28    30 1   
    42    28    39 1   
    43    28    55 1   
    44    29    32 1   
    45    29    41 1   
    46    29    56 1   
    47    30    31 1   
    48    30    34 1   
    49    30    57 1   
    50    31    58 1   
    51    32    33 1   
    52    32    36 1   
    53    32    59 1   
    54    33    60 1   
    55    34    35 1   
    56    34    38 1   
    57    34    61 1   
    58    35    62 1   
    59    36    37 1   
    60    36    40 1   
    61    36    63 1   
    62    37    64 1   
    63    38    39 1   
    64    38    42 1   
    65    38    65 1   
    66    40    41 1   
    67    40    44 1   
    68    40    66 1   
    69    42    43 1   
    70    42    67 1   
    71    42    68 1   
    72    44    45 1   
    73    44    69 1   
    74    44    70 1   
@<TRIPOS>SUBSTRUCTURE
     1 NFD         1 TEMP              0 ****  ****    0 ROOT
