@<TRIPOS>MOLECULE
NFD
   70    74     1     0     0
SMALL
No Charge or Current Charge


@<TRIPOS>ATOM
      1 PA          -0.1890    -0.1610     0.7650 p5         1 NFD       1.484800
      2 PN          -1.2670    -0.3820    -1.6550 p5         1 NFD       1.466800
      3 N1A          7.2170     3.3830     2.5460 nb         1 NFD      -0.349000
      4 O1A         -1.5340    -0.1690     1.4100 o          1 NFD      -0.865500
      5 NN1         -5.6910    -1.0840     0.0050 na         1 NFD       0.011300
      6 O1N         -1.7150     1.0310    -1.4850 o          1 NFD      -0.849500
      7 C2A          7.5060     2.1290     2.1410 ca         1 NFD       0.393200
      8 F2A          8.7130     1.6500     2.5090 f          1 NFD      -0.235200
      9 O2A          0.4550     1.1850     0.7880 o          1 NFD      -0.865500
     10 C2N         -6.8760    -0.3320     0.0220 ca         1 NFD      -0.067000
     11 O2N         -0.8200    -0.6080    -3.0610 o          1 NFD      -0.849500
     12 O3          -0.1570    -0.8580    -0.6450 os         1 NFD      -0.692800
     13 N3A          6.7330     1.2960     1.4100 nb         1 NFD      -0.236000
     14 C3N         -7.0590     0.8140     0.8320 ca         1 NFD      -0.194600
     15 C4A          5.5310     1.7870     1.0500 ca         1 NFD       0.183500
     16 C4N         -5.9970     1.2240     1.6670 ca         1 NFD      -0.021000
     17 C5A          5.1320     3.0520     1.4020 ca         1 NFD      -0.075600
     18 C5N         -4.8030     0.4890     1.6750 ca         1 NFD      -0.062000
     19 C6A          6.0170     3.8400     2.1710 ca         1 NFD       0.482900
     20 N6A          5.7220     5.1050     2.5680 nv         1 NFD      -1.073900
     21 C6N         -4.6660    -0.6470     0.8590 ca         1 NFD       0.112700
     22 N7A          3.8700     3.3690     0.9110 nc         1 NFD      -0.551100
     23 C7N         -8.3740     1.5580     0.7740 c          1 NFD       0.629700
     24 NN7         -8.5290     2.6540     1.5450 nt         1 NFD      -0.593000
     25 O7N         -9.2950     1.2000     0.0600 o          1 NFD      -0.612100
     26 C8A          3.5340     2.2380     0.2580 cd         1 NFD       0.426700
     27 N9A          4.5130     1.2280     0.3170 na         1 NFD      -0.278300
     28 C1'A         4.4750    -0.0710    -0.3570 c5         1 NFD       0.325300
     29 C1'N        -5.5460    -2.2480    -0.8860 c5         1 NFD       0.285300
     30 C2'A         5.0620    -1.2940     0.4490 c5         1 NFD       0.069300
     31 O2'A         6.3960    -1.6840     0.0550 oh         1 NFD      -0.705000
     32 C2'N        -5.2600    -1.9150    -2.3890 c5         1 NFD       0.069300
     33 O2'N        -6.4510    -1.6650    -3.1660 oh         1 NFD      -0.718000
     34 C3'A         4.0420    -2.4210     0.1240 c5         1 NFD       0.101300
     35 O3'A         4.3790    -3.0340    -1.1240 oh         1 NFD      -0.709000
     36 C3'N        -4.5580    -3.2240    -2.8430 c5         1 NFD       0.112300
     37 O3'N        -5.5390    -4.2400    -3.0890 oh         1 NFD      -0.701000
     38 C4'A         2.7190    -1.5980     0.0770 c5         1 NFD       0.138300
     39 O4'A         3.1050    -0.4210    -0.6780 os         1 NFD      -0.390000
     40 C4'N        -3.6670    -3.5290    -1.5950 c5         1 NFD       0.149300
     41 O4'N        -4.4720    -3.1260    -0.4500 os         1 NFD      -0.382000
     42 C5'A         2.1760    -1.2040     1.4920 c3         1 NFD       0.222600
     43 O5'A         0.7380    -1.2320     1.5400 os         1 NFD      -0.577400
     44 C5'N        -2.2820    -2.8100    -1.5870 c3         1 NFD       0.208600
     45 O5'N        -2.4310    -1.4220    -1.2570 os         1 NFD      -0.566400
     46 HC2         -7.6730    -0.6710    -0.6440 h4         1 NFD       0.179000
     47 HC4         -6.0780     2.0980     2.3090 ha         1 NFD       0.134000
     48 HC5         -3.9750     0.7930     2.3120 ha         1 NFD       0.222000
     49 HAN6         4.9300     5.5530     2.1130 hn         1 NFD       0.497500
     50 HANA         6.4900     5.7090     2.8510 hn         1 NFD       0.497500
     51 HC6         -3.7390    -1.2190     0.8750 h4         1 NFD       0.269000
     52 HNN7        -7.7830     2.9710     2.1430 hn         1 NFD       0.323000
     53 HNNA        -9.4050     3.1540     1.5110 hn         1 NFD       0.323000
     54 HC8          2.6140     2.0900    -0.2960 h5         1 NFD       0.100800
     55 HC1          5.0320     0.0610    -1.2930 h2         1 NFD       0.107700
     56 HC1A        -6.4910    -2.7990    -0.8130 h2         1 NFD       0.109700
     57 H1           5.0350    -1.0780     1.5270 h1         1 NFD       0.061700
     58 HO2          7.0240    -1.0400     0.4620 ho         1 NFD       0.499000
     59 HC2A        -4.5730    -1.0600    -2.4590 h1         1 NFD       0.076700
     60 HO2A        -6.2170    -1.0250    -3.8830 ho         1 NFD       0.522000
     61 HC3          4.0180    -3.1790     0.9200 h1         1 NFD       0.042700
     62 HO3          5.3560    -2.8820    -1.1850 ho         1 NFD       0.507000
     63 HC3A        -3.9460    -3.0590    -3.7420 h1         1 NFD       0.066700
     64 HO3A        -6.3420    -3.7310    -3.3640 ho         1 NFD       0.510000
     65 H2           1.9450    -2.1540    -0.4650 h1         1 NFD       0.094700
     66 HC4A        -3.4690    -4.6080    -1.5280 h1         1 NFD       0.125700
     67 H3           2.5630    -1.9230     2.2250 h1         1 NFD       0.019200
     68 HC5A         2.5570    -0.2170     1.7840 h1         1 NFD       0.019200
     69 HC5B        -1.6420    -3.2990    -0.8420 h1         1 NFD       0.020200
     70 HC5C        -1.8100    -2.9450    -2.5690 h1         1 NFD       0.020200
@<TRIPOS>BOND
     1     1     4 1   
     2     1     9 1   
     3     1    12 1   
     4     1    43 1   
     5     2     6 1   
     6     2    11 1   
     7     2    12 1   
     8     2    45 1   
     9     3     7 ar  
    10     3    19 ar  
    11     5    10 1   
    12     5    21 2   
    13     5    29 1   
    14     7     8 1   
    15     7    13 ar  
    16    10    14 ar  
    17    10    46 1   
    18    13    15 ar  
    19    14    16 ar  
    20    14    23 1   
    21    15    17 ar  
    22    15    27 1   
    23    16    18 ar  
    24    16    47 1   
    25    17    19 ar  
    26    17    22 1   
    27    18    21 ar  
    28    18    48 1   
    29    19    20 1   
    30    20    49 1   
    31    20    50 1   
    32    21    51 1   
    33    22    26 2   
    34    23    24 1   
    35    23    25 2   
    36    24    52 1   
    37    24    53 1   
    38    26    27 1   
    39    26    54 1   
    40    27    28 1   
    41    28    30 1   
    42    28    39 1   
    43    28    55 1   
    44    29    32 1   
    45    29    41 1   
    46    29    56 1   
    47    30    31 1   
    48    30    34 1   
    49    30    57 1   
    50    31    58 1   
    51    32    33 1   
    52    32    36 1   
    53    32    59 1   
    54    33    60 1   
    55    34    35 1   
    56    34    38 1   
    57    34    61 1   
    58    35    62 1   
    59    36    37 1   
    60    36    40 1   
    61    36    63 1   
    62    37    64 1   
    63    38    39 1   
    64    38    42 1   
    65    38    65 1   
    66    40    41 1   
    67    40    44 1   
    68    40    66 1   
    69    42    43 1   
    70    42    67 1   
    71    42    68 1   
    72    44    45 1   
    73    44    69 1   
    74    44    70 1   
@<TRIPOS>SUBSTRUCTURE
     1 NFD         1 TEMP              0 ****  ****    0 ROOT
