@<TRIPOS>MOLECULE
NFF
   52    54     1     0     0
SMALL
No Charge or Current Charge


@<TRIPOS>ATOM
      1 C           -1.0730     3.2030    -0.1890 c          1 NFF       0.584900
      2 N            0.5030     1.2850    -0.2980 ns         1 NFF      -0.476900
      3 O           -0.3080     3.7820     0.5810 o          1 NFF      -0.542100
      4 CA          -0.8110     1.7990    -0.7730 c3         1 NFF      -0.010300
      5 CB          -2.0010     0.8320    -0.5210 c5         1 NFF       0.368500
      6 CAA          3.4160     4.3750    -0.8830 c3         1 NFF      -0.097100
      7 CAI          3.3020    -4.1560     1.3670 ca         1 NFF      -0.116000
      8 CAJ          2.0390    -3.8810     0.8260 ca         1 NFF      -0.100000
      9 CAK          4.6530     0.4680     0.6800 ca         1 NFF      -0.189000
     10 CAL          4.2580    -3.1340     1.4530 ca         1 NFF      -0.103000
     11 CAM          1.7330    -2.5900     0.3600 ca         1 NFF      -0.084000
     12 CAN          4.9270    -0.8330     1.1160 ca         1 NFF      -0.057000
     13 CAO          4.0820     3.1330    -0.2710 c3         1 NFF       0.172600
     14 NAQ         -3.3110     1.3580    -0.9350 n7         1 NFF      -0.809400
     15 SAS         -2.3580     0.6240     1.2700 ss         1 NFF      -0.613000
     16 CAT         -4.4710    -0.9420    -1.6030 c          1 NFF       0.734000
     17 CAU          1.1000     0.1140    -0.7050 c          1 NFF       0.624700
     18 CAV          3.4060     0.7780     0.0990 ca         1 NFF       0.163100
     19 CAW          2.4160    -0.2270    -0.0450 ca         1 NFF      -0.172600
     20 CAX          3.9580    -1.8380     0.9910 ca         1 NFF      -0.075000
     21 CAY          2.6940    -1.5480     0.4170 ca         1 NFF       0.031000
     22 CBB         -4.3200     0.2760    -0.5920 c5         1 NFF       0.031500
     23 CBC         -3.9660    -0.2210     0.8700 c5         1 NFF       0.126000
     24 H           -2.0120     3.6960    -0.5260 h4         1 NFF      -0.006800
     25 HN           1.0170     1.8310     0.3850 hn         1 NFF       0.332500
     26 HAA         -0.7430     1.9380    -1.8590 h1         1 NFF       0.095700
     27 HB          -1.7800    -0.1420    -0.9850 h2         1 NFF       0.149700
     28 HAAA         3.1620     4.1980    -1.9350 hc         1 NFF       0.048700
     29 HAAB         2.5000     4.6300    -0.3390 hc         1 NFF       0.048700
     30 HAAC         4.0970     5.2340    -0.8330 hc         1 NFF       0.048700
     31 HAI          3.5360    -5.1550     1.7270 ha         1 NFF       0.106000
     32 HAJ          1.2900    -4.6680     0.7710 ha         1 NFF       0.121000
     33 HAK          5.4280     1.2180     0.7930 ha         1 NFF       0.111000
     34 HAL          5.2320    -3.3500     1.8860 ha         1 NFF       0.101000
     35 HAM          0.7340    -2.4240    -0.0280 ha         1 NFF       0.152000
     36 HAN          5.8960    -1.0570     1.5580 ha         1 NFF       0.105000
     37 HAO          5.0030     2.9030    -0.8220 h1         1 NFF       0.029200
     38 HAOA         4.3340     3.3340     0.7780 h1         1 NFF       0.029200
     39 HNAQ        -3.5080     2.1610    -0.3340 hn         1 NFF       0.373000
     40 HBB         -5.3150     0.7410    -0.5830 h1         1 NFF       0.057700
     41 CAB         -5.0170     0.2530     1.9050 c3         1 NFF      -0.069600
     42 CAC         -3.7500    -1.7490     1.0500 c3         1 NFF      -0.069600
     43 HAB         -4.7180    -0.0040     2.9280 hc         1 NFF       0.033700
     44 HABA        -5.1510     1.3410     1.8640 hc         1 NFF       0.033700
     45 HABB        -5.9930    -0.2090     1.7160 hc         1 NFF       0.033700
     46 HAC         -4.6640    -2.3130     0.8280 hc         1 NFF       0.033700
     47 HACA        -2.9520    -2.1240     0.3980 hc         1 NFF       0.033700
     48 HACB        -3.4610    -1.9880     2.0800 hc         1 NFF       0.033700
     49 OAR          3.1430     2.0510    -0.3730 os         1 NFF      -0.346100
     50 OAE         -5.5920    -1.3930    -1.8030 o          1 NFF      -0.713500
     51 OAF          0.6030    -0.5740    -1.5850 o          1 NFF      -0.583100
     52 OAG         -3.5060    -1.3360    -2.2460 o          1 NFF      -0.713500
@<TRIPOS>BOND
     1     1     3 2   
     2     1     4 1   
     3     1    24 1   
     4     2     4 1   
     5     2    17 1   
     6     2    25 1   
     7     4     5 1   
     8     4    26 1   
     9     5    14 1   
    10     5    15 1   
    11     5    27 1   
    12     6    13 1   
    13     6    28 1   
    14     6    29 1   
    15     6    30 1   
    16     7     8 ar  
    17     7    10 ar  
    18     7    31 1   
    19     8    11 ar  
    20     8    32 1   
    21     9    12 ar  
    22     9    18 ar  
    23     9    33 1   
    24    10    20 ar  
    25    10    34 1   
    26    11    21 ar  
    27    11    35 1   
    28    12    20 ar  
    29    12    36 1   
    30    13    37 1   
    31    13    38 1   
    32    13    49 1   
    33    14    22 1   
    34    14    39 1   
    35    15    23 1   
    36    16    22 1   
    37    16    50 1   
    38    16    52 1   
    39    17    19 1   
    40    17    51 2   
    41    18    19 ar  
    42    18    49 1   
    43    19    21 ar  
    44    20    21 ar  
    45    22    23 1   
    46    22    40 1   
    47    23    41 1   
    48    23    42 1   
    49    41    43 1   
    50    41    44 1   
    51    41    45 1   
    52    42    46 1   
    53    42    47 1   
    54    42    48 1   
@<TRIPOS>SUBSTRUCTURE
     1 NFF         1 TEMP              0 ****  ****    0 ROOT
