@<TRIPOS>MOLECULE
NFF
   52    54     1     0     0
SMALL
bcc


@<TRIPOS>ATOM
      1 C           -1.2060     2.4790     0.3860 c          1 NFF       0.584900
      2 N            0.4610     0.8000    -0.0400 ns         1 NFF      -0.543900
      3 O           -0.4750     3.0080     1.1820 o          1 NFF      -0.542100
      4 CA          -0.8090     1.3040    -0.4790 c3         1 NFF      -0.010300
      5 CB          -1.8920     0.2230    -0.4590 c5         1 NFF       0.320600
      6 CAA          3.1060     4.4570    -0.5100 c3         1 NFF      -0.097100
      7 CAI          3.6950    -4.0700     0.9580 ca         1 NFF      -0.134000
      8 CAJ          2.4210    -3.8160     0.4070 ca         1 NFF      -0.118000
      9 CAK          4.8290     0.6130     0.4740 ca         1 NFF      -0.207000
     10 CAL          4.5880    -3.0450     1.1020 ca         1 NFF      -0.121000
     11 CAM          2.0670    -2.5560     0.0090 ca         1 NFF      -0.102000
     12 CAN          5.1570    -0.6580     0.8520 ca         1 NFF      -0.075000
     13 CAO          3.9240     3.2420    -0.1410 c3         1 NFF       0.149400
     14 NAQ         -3.0720     0.5810    -1.1890 n7         1 NFF      -0.754200
     15 SAS         -2.4070    -0.1280     1.2970 ss         1 NFF      -0.517200
     16 CAT         -4.3430    -1.5600    -1.2020 c          1 NFF       0.944600
     17 CAU          1.3150     0.1600    -0.8550 c          1 NFF       0.691700
     18 CAV          3.5540     0.8750    -0.0780 ca         1 NFF       0.163100
     19 CAW          2.6430    -0.1490    -0.2330 ca         1 NFF      -0.172600
     20 CAX          4.2520    -1.7310     0.7030 ca         1 NFF      -0.075000
     21 CAY          2.9730    -1.4740     0.1410 ca         1 NFF       0.031000
     22 CBB         -4.2360    -0.1170    -0.6660 c5         1 NFF       0.031500
     23 CBC         -4.1980    -0.0450     0.8940 c5         1 NFF       0.078100
     24 H           -2.2250     2.8590     0.2120 h4         1 NFF      -0.006800
     25 HN           0.7920     1.0940     0.8660 hn         1 NFF       0.332500
     26 HAA         -0.7290     1.6790    -1.5100 h1         1 NFF       0.095700
     27 HB          -1.4830    -0.7040    -0.8550 h2         1 NFF       0.149700
     28 HAAA         2.9040     4.4930    -1.5800 hc         1 NFF       0.048700
     29 HAAB         2.1570     4.4660     0.0260 hc         1 NFF       0.048700
     30 HAAC         3.6560     5.3590    -0.2420 hc         1 NFF       0.048700
     31 HAI          3.9590    -5.0730     1.2650 ha         1 NFF       0.124000
     32 HAJ          1.7160    -4.6300     0.2970 ha         1 NFF       0.139000
     33 HAK          5.5530     1.4080     0.5940 ha         1 NFF       0.129000
     34 HAL          5.5680    -3.2270     1.5270 ha         1 NFF       0.119000
     35 HAM          1.0830    -2.3930    -0.4120 ha         1 NFF       0.170000
     36 HAN          6.1360    -0.8520     1.2750 ha         1 NFF       0.123000
     37 HAO          4.8780     3.2390    -0.6780 h1         1 NFF       0.029200
     38 HAOA         4.1420     3.2410     0.9310 h1         1 NFF       0.029200
     39 HNAQ        -3.2400     1.5780    -1.1510 hn         1 NFF       0.317800
     40 HBB         -5.1230     0.4260    -1.0010 h1         1 NFF       0.057700
     41 CAB         -4.7690     1.2890     1.3700 c3         1 NFF      -0.069600
     42 CAC         -4.9270    -1.1850     1.5950 c3         1 NFF      -0.069600
     43 HAB         -4.6230     1.4200     2.4420 hc         1 NFF       0.033700
     44 HABA        -4.3070     2.1400     0.8690 hc         1 NFF       0.033700
     45 HABB        -5.8430     1.3310     1.1710 hc         1 NFF       0.033700
     46 HAC         -5.9820    -1.1840     1.3210 hc         1 NFF       0.033700
     47 HACA        -4.5060    -2.1560     1.3400 hc         1 NFF       0.033700
     48 HACB        -4.8660    -1.0690     2.6780 hc         1 NFF       0.033700
     49 OAR          3.1620     2.0900    -0.4880 os         1 NFF      -0.322900
     50 OAE         -5.5030    -1.9780    -1.3890 o          1 NFF      -0.818800
     51 OAF          1.0370    -0.1650    -1.9990 o          1 NFF      -0.583100
     52 OAG         -3.2840    -2.1880    -1.3940 o          1 NFF      -0.818800
@<TRIPOS>BOND
     1     1     3 2   
     2     1     4 1   
     3     1    24 1   
     4     2     4 1   
     5     2    17 1   
     6     2    25 1   
     7     4     5 1   
     8     4    26 1   
     9     5    14 1   
    10     5    15 1   
    11     5    27 1   
    12     6    13 1   
    13     6    28 1   
    14     6    29 1   
    15     6    30 1   
    16     7     8 ar  
    17     7    10 ar  
    18     7    31 1   
    19     8    11 ar  
    20     8    32 1   
    21     9    12 ar  
    22     9    18 ar  
    23     9    33 1   
    24    10    20 ar  
    25    10    34 1   
    26    11    21 ar  
    27    11    35 1   
    28    12    20 ar  
    29    12    36 1   
    30    13    37 1   
    31    13    38 1   
    32    13    49 1   
    33    14    22 1   
    34    14    39 1   
    35    15    23 1   
    36    16    22 1   
    37    16    50 1   
    38    16    52 1   
    39    17    19 1   
    40    17    51 2   
    41    18    19 ar  
    42    18    49 1   
    43    19    21 ar  
    44    20    21 ar  
    45    22    23 1   
    46    22    40 1   
    47    23    41 1   
    48    23    42 1   
    49    41    43 1   
    50    41    44 1   
    51    41    45 1   
    52    42    46 1   
    53    42    47 1   
    54    42    48 1   
@<TRIPOS>SUBSTRUCTURE
     1 NFF         1 TEMP              0 ****  ****    0 ROOT
