@<TRIPOS>MOLECULE
NFG
   37    38     1     0     0
SMALL
No Charge or Current Charge


@<TRIPOS>ATOM
      1 C1          -1.3910    -0.3130    -0.3820 c6         1 NFG       0.372300
      2 O1          -0.1810    -1.0140    -0.0480 os         1 NFG      -0.293100
      3 C2          -2.6070    -1.2770    -0.2890 c6         1 NFG       0.141300
      4 F           -2.4850    -2.2780    -1.2820 f          1 NFG      -0.242000
      5 C3          -3.9350    -0.5050    -0.5340 c6         1 NFG       0.108300
      6 O3          -5.0880    -1.3570    -0.3700 oh         1 NFG      -0.652000
      7 C4          -4.0310     0.7130     0.4320 c6         1 NFG       0.143300
      8 O4          -5.2320     1.4540     0.1490 oh         1 NFG      -0.714000
      9 C5          -2.7470     1.5920     0.2960 c6         1 NFG       0.178300
     10 C6          -2.7350     2.7970     1.2940 c3         1 NFG       0.171600
     11 O6          -1.5310     3.5910     1.2150 oh         1 NFG      -0.718000
     12 O5          -1.5730     0.7760     0.5520 os         1 NFG      -0.463000
     13 C11          1.0680    -0.4360    -0.1990 ca         1 NFG       0.254100
     14 C12          2.2050    -1.1680     0.2010 ca         1 NFG      -0.227200
     15 N1           2.0660    -2.5400     0.7480 no         1 NFG       0.704200
     16 O11          2.8160    -2.8600     1.6790 o          1 NFG      -0.378000
     17 O12          1.3670    -3.3480     0.1230 o          1 NFG      -0.378000
     18 C13          3.4920    -0.5980     0.0980 ca         1 NFG       0.040000
     19 C14          3.6570     0.7040    -0.4250 ca         1 NFG      -0.229200
     20 N2           5.0210     1.3070    -0.5400 no         1 NFG       0.704200
     21 O21          5.1180     2.4490    -1.0060 o          1 NFG      -0.392000
     22 O22          5.9900     0.6340    -0.1660 o          1 NFG      -0.392000
     23 C15          2.5190     1.4300    -0.8370 ca         1 NFG       0.025000
     24 C16          1.2390     0.8640    -0.7240 ca         1 NFG      -0.206000
     25 H1          -1.3210     0.0780    -1.4080 h2         1 NFG       0.054700
     26 H2          -2.6170    -1.7690     0.6930 h1         1 NFG       0.102700
     27 H3          -3.9090    -0.1160    -1.5640 h1         1 NFG       0.055700
     28 H3O1        -4.9690    -2.1240    -0.9760 ho         1 NFG       0.467000
     29 H4          -4.0680     0.3290     1.4640 h1         1 NFG       0.064700
     30 H4O1        -5.9210     0.7640    -0.0170 ho         1 NFG       0.530000
     31 H5          -2.6850     1.9950    -0.7250 h1         1 NFG       0.062700
     32 H62         -3.6120     3.4240     1.0840 h1         1 NFG       0.044200
     33 H61         -2.8580     2.3970     2.3100 h1         1 NFG       0.044200
     34 H6          -1.5900     4.2740     1.9240 ho         1 NFG       0.513000
     35 H13          4.3610    -1.1750     0.4160 ha         1 NFG       0.182000
     36 H15          2.6150     2.4370    -1.2430 ha         1 NFG       0.160000
     37 H16          0.3910     1.4620    -1.0410 ha         1 NFG       0.156000
@<TRIPOS>BOND
     1     1     2 1   
     2     1     3 1   
     3     1    12 1   
     4     1    25 1   
     5     2    13 1   
     6     3     4 1   
     7     3     5 1   
     8     3    26 1   
     9     5     6 1   
    10     5     7 1   
    11     5    27 1   
    12     6    28 1   
    13     7     8 1   
    14     7     9 1   
    15     7    29 1   
    16     8    30 1   
    17     9    10 1   
    18     9    12 1   
    19     9    31 1   
    20    10    11 1   
    21    10    32 1   
    22    10    33 1   
    23    11    34 1   
    24    13    14 ar  
    25    13    24 ar  
    26    14    15 1   
    27    14    18 ar  
    28    15    16 1   
    29    15    17 1   
    30    18    19 ar  
    31    18    35 1   
    32    19    20 1   
    33    19    23 ar  
    34    20    21 1   
    35    20    22 1   
    36    23    24 ar  
    37    23    36 1   
    38    24    37 1   
@<TRIPOS>SUBSTRUCTURE
     1 NFG         1 TEMP              0 ****  ****    0 ROOT
