@<TRIPOS>MOLECULE
NFG
   37    38     1     0     0
SMALL
abcg2


@<TRIPOS>ATOM
      1 C1          -1.3440    -0.2440    -0.2660 c6         1 NFG       0.372300
      2 O1          -0.1760    -0.8980     0.1460 os         1 NFG      -0.293100
      3 C2          -2.4790    -1.2520    -0.2280 c6         1 NFG       0.141300
      4 F           -2.2450    -2.2340    -1.1790 f          1 NFG      -0.242000
      5 C3          -3.7880    -0.5440    -0.5420 c6         1 NFG       0.108300
      6 O3          -4.8940    -1.3920    -0.3670 oh         1 NFG      -0.652000
      7 C4          -3.9740     0.6610     0.3810 c6         1 NFG       0.143300
      8 O4          -5.0880     1.4210    -0.0030 oh         1 NFG      -0.714000
      9 C5          -2.7360     1.5540     0.3060 c6         1 NFG       0.178300
     10 C6          -2.7890     2.7180     1.2690 c3         1 NFG       0.171600
     11 O6          -1.6410     3.5060     1.0730 oh         1 NFG      -0.718000
     12 O5          -1.5960     0.7760     0.6400 os         1 NFG      -0.463000
     13 C11          1.0140    -0.3470    -0.0770 ca         1 NFG       0.254100
     14 C12          2.1510    -1.1230     0.1960 ca         1 NFG      -0.227200
     15 N1           2.0260    -2.4980     0.6570 no         1 NFG       0.704200
     16 O11          2.8060    -2.8660     1.5040 o          1 NFG      -0.378000
     17 O12          1.1780    -3.1900     0.1550 o          1 NFG      -0.378000
     18 C13          3.4280    -0.6290     0.0380 ca         1 NFG       0.040000
     19 C14          3.5830     0.6570    -0.4430 ca         1 NFG      -0.229200
     20 N2           4.9200     1.1790    -0.6460 no         1 NFG       0.704200
     21 O21          5.0270     2.3040    -1.0730 o          1 NFG      -0.392000
     22 O22          5.8550     0.4620    -0.3780 o          1 NFG      -0.392000
     23 C15          2.4820     1.4540    -0.7220 ca         1 NFG       0.025000
     24 C16          1.2090     0.9610    -0.5240 ca         1 NFG      -0.206000
     25 H1          -1.2180     0.1460    -1.2900 h2         1 NFG       0.054700
     26 H2          -2.5220    -1.7300     0.7560 h1         1 NFG       0.102700
     27 H3          -3.7370    -0.1700    -1.5750 h1         1 NFG       0.055700
     28 H3O1        -5.0090    -1.9290    -1.1570 ho         1 NFG       0.467000
     29 H4          -4.0750     0.2960     1.4150 h1         1 NFG       0.064700
     30 H4O1        -5.8710     0.8660     0.0710 ho         1 NFG       0.530000
     31 H5          -2.6360     1.9420    -0.7200 h1         1 NFG       0.062700
     32 H62         -3.7080     3.2810     1.0800 h1         1 NFG       0.044200
     33 H61         -2.8530     2.3300     2.2950 h1         1 NFG       0.044200
     34 H6          -1.7190     4.2880     1.6270 ho         1 NFG       0.513000
     35 H13          4.2840    -1.2500     0.2630 ha         1 NFG       0.182000
     36 H15          2.6010     2.4660    -1.0790 ha         1 NFG       0.160000
     37 H16          0.3740     1.6220    -0.7020 ha         1 NFG       0.156000
@<TRIPOS>BOND
     1     1     2 1   
     2     1     3 1   
     3     1    12 1   
     4     1    25 1   
     5     2    13 1   
     6     3     4 1   
     7     3     5 1   
     8     3    26 1   
     9     5     6 1   
    10     5     7 1   
    11     5    27 1   
    12     6    28 1   
    13     7     8 1   
    14     7     9 1   
    15     7    29 1   
    16     8    30 1   
    17     9    10 1   
    18     9    12 1   
    19     9    31 1   
    20    10    11 1   
    21    10    32 1   
    22    10    33 1   
    23    11    34 1   
    24    13    14 ar  
    25    13    24 ar  
    26    14    15 1   
    27    14    18 ar  
    28    15    16 1   
    29    15    17 1   
    30    18    19 ar  
    31    18    35 1   
    32    19    20 1   
    33    19    23 ar  
    34    20    21 1   
    35    20    22 1   
    36    23    24 ar  
    37    23    36 1   
    38    24    37 1   
@<TRIPOS>SUBSTRUCTURE
     1 NFG         1 TEMP              0 ****  ****    0 ROOT
