@<TRIPOS>MOLECULE
NFH
   51    50     1     0     0
SMALL
abcg2


@<TRIPOS>ATOM
      1 C           41.1140    13.7910   142.0210 c          1 NFH       0.598100
      2 N           42.0480    15.2770   145.3680 n          1 NFH      -0.290300
      3 O           42.0410    13.0380   141.7220 o          1 NFH      -0.619100
      4 C1          39.9380    13.3080   139.0870 c          1 NFH       0.579100
      5 N1          39.8810    13.6760   141.4950 ns         1 NFH      -0.481900
      6 N2          40.5930    12.4770   138.2630 ns         1 NFH      -0.499900
      7 CA          41.3040    14.9220   143.0220 c3         1 NFH      -0.157700
      8 CB          42.3060    15.9450   142.4720 c3         1 NFH      -0.066400
      9 CG          41.9020    16.6100   141.1490 c3         1 NFH      -0.066700
     10 CM          43.2280    15.6920   145.8280 c          1 NFH       0.583900
     11 OM          43.3340    16.6310   146.6240 o          1 NFH      -0.618100
     12 CN          41.7870    14.2990   144.3430 c3         1 NFH       0.140000
     13 ON          40.9230    15.9880   145.7850 oh         1 NFH      -0.458100
     14 CA1         39.5600    12.7190   140.4540 c3         1 NFH       0.042700
     15 CB1         38.0760    12.2560   140.5370 c3         1 NFH      -0.049000
     16 CD1         40.6400    17.4630   141.2910 c3         1 NFH      -0.085100
     17 CD2         43.0620    17.4550   140.6190 c3         1 NFH      -0.085100
     18 CG1         37.8030    11.2570   139.4050 c3         1 NFH      -0.088100
     19 CG2         37.8740    11.5490   141.8850 c3         1 NFH      -0.088100
     20 CG3         37.0920    13.4280   140.4180 c3         1 NFH      -0.088100
     21 CN2         40.9740    12.8560   136.9140 c3         1 NFH       0.096300
     22 HN1         39.1990    14.3800   141.7240 hn         1 NFH       0.327500
     23 H2          40.8050    11.5450   138.5790 hn         1 NFH       0.318500
     24 HA          40.3450    15.4060   143.2060 hc         1 NFH       0.074700
     25 HB          42.4550    16.7260   143.2230 hc         1 NFH       0.050700
     26 HBA         43.2680    15.4420   142.3420 hc         1 NFH       0.050700
     27 HG          41.6990    15.8220   140.4160 hc         1 NFH       0.060700
     28 HM          44.0720    15.1140   145.4360 h5         1 NFH       0.041200
     29 HN          41.0460    13.5910   144.7200 h1         1 NFH       0.070700
     30 HNA         42.7220    13.7630   144.1840 h1         1 NFH       0.070700
     31 HON         41.3130    16.6790   146.3600 ho         1 NFH       0.476000
     32 HA1         40.1830    11.8430   140.6320 h1         1 NFH       0.077700
     33 HD1         40.3850    17.9320   140.3380 hc         1 NFH       0.033533
     34 HD1A        39.7770    16.8770   141.6110 hc         1 NFH       0.033533
     35 HD1B        40.7960    18.2580   142.0250 hc         1 NFH       0.033533
     36 HD2         42.8050    17.9160   139.6630 hc         1 NFH       0.033533
     37 HD2A        43.3080    18.2550   141.3230 hc         1 NFH       0.033533
     38 HD2B        43.9580    16.8470   140.4730 hc         1 NFH       0.033533
     39 HG1         36.8000    10.8420   139.5180 hc         1 NFH       0.040700
     40 HG1A        37.8600    11.7310   138.4240 hc         1 NFH       0.040700
     41 HG1B        38.5170    10.4300   139.4270 hc         1 NFH       0.040700
     42 HG2         36.8490    11.1790   141.9590 hc         1 NFH       0.040700
     43 HG2A        38.5520    10.6980   141.9820 hc         1 NFH       0.040700
     44 HG2B        38.0520    12.2250   142.7220 hc         1 NFH       0.040700
     45 HG3         36.0710    13.0420   140.4490 hc         1 NFH       0.040700
     46 HG3A        37.1900    14.1370   141.2430 hc         1 NFH       0.040700
     47 HG3B        37.2270    13.9690   139.4820 hc         1 NFH       0.040700
     48 HN2         41.5120    12.0260   136.4630 h1         1 NFH       0.042033
     49 HN2A        40.0940    13.0840   136.3100 h1         1 NFH       0.042033
     50 H29         41.6200    13.7350   136.9290 h1         1 NFH       0.042033
     51 O1          39.6560    14.4660   138.7760 o          1 NFH      -0.611100
@<TRIPOS>BOND
     1     1     3 2   
     2     1     5 1   
     3     1     7 1   
     4     2    10 1   
     5     2    12 1   
     6     2    13 1   
     7     4     6 1   
     8     4    14 1   
     9     4    51 2   
    10     5    14 1   
    11     5    22 1   
    12     6    21 1   
    13     6    23 1   
    14     7     8 1   
    15     7    12 1   
    16     7    24 1   
    17     8     9 1   
    18     8    25 1   
    19     8    26 1   
    20     9    16 1   
    21     9    17 1   
    22     9    27 1   
    23    10    11 2   
    24    10    28 1   
    25    12    29 1   
    26    12    30 1   
    27    13    31 1   
    28    14    15 1   
    29    14    32 1   
    30    15    18 1   
    31    15    19 1   
    32    15    20 1   
    33    16    33 1   
    34    16    34 1   
    35    16    35 1   
    36    17    36 1   
    37    17    37 1   
    38    17    38 1   
    39    18    39 1   
    40    18    40 1   
    41    18    41 1   
    42    19    42 1   
    43    19    43 1   
    44    19    44 1   
    45    20    45 1   
    46    20    46 1   
    47    20    47 1   
    48    21    48 1   
    49    21    49 1   
    50    21    50 1   
@<TRIPOS>SUBSTRUCTURE
     1 NFH         1 TEMP              0 ****  ****    0 ROOT
