@<TRIPOS>MOLECULE
NFH
   51    50     1     0     0
SMALL
No Charge or Current Charge


@<TRIPOS>ATOM
      1 C           41.0980    13.8980   142.0330 c          1 NFH       0.598100
      2 N           41.0630    15.6710   145.4510 n          1 NFH      -0.290300
      3 O           41.8920    12.9690   142.0260 o          1 NFH      -0.619100
      4 C1          39.3300    13.6530   138.8290 c          1 NFH       0.579100
      5 N1          40.0180    13.9510   141.1820 ns         1 NFH      -0.481900
      6 N2          39.6310    12.9550   137.6780 ns         1 NFH      -0.499900
      7 CA          41.2340    15.0950   142.9870 c3         1 NFH      -0.157700
      8 CB          42.5480    15.8940   142.7280 c3         1 NFH      -0.066400
      9 CG          42.7600    16.3920   141.2680 c3         1 NFH      -0.066700
     10 CM          42.1750    16.0130   146.2620 c          1 NFH       0.583900
     11 OM          42.1290    16.8970   147.1140 o          1 NFH      -0.618100
     12 CN          41.1140    14.5890   144.4440 c3         1 NFH       0.140000
     13 ON          39.7810    16.3160   145.6370 oh         1 NFH      -0.458100
     14 CA1         39.6710    12.9250   140.1690 c3         1 NFH       0.042700
     15 CB1         38.5310    11.9640   140.6850 c3         1 NFH      -0.049000
     16 CD1         41.6420    17.3470   140.7870 c3         1 NFH      -0.085100
     17 CD2         44.1470    17.0560   141.1130 c3         1 NFH      -0.085100
     18 CG1         38.2190    10.8660   139.6300 c3         1 NFH      -0.088100
     19 CG2         38.9830    11.2500   141.9900 c3         1 NFH      -0.088100
     20 CG3         37.2230    12.7520   140.9810 c3         1 NFH      -0.088100
     21 CN2         39.4000    13.4620   136.3230 c3         1 NFH       0.096300
     22 HN1         39.4360    14.7800   141.2310 hn         1 NFH       0.327500
     23 H2          40.0320    12.0310   137.7870 hn         1 NFH       0.318500
     24 HA          40.3870    15.7680   142.8120 hc         1 NFH       0.074700
     25 HB          42.5780    16.7630   143.3970 hc         1 NFH       0.050700
     26 HBA         43.4000    15.2610   143.0080 hc         1 NFH       0.050700
     27 HG          42.7550    15.5190   140.6030 hc         1 NFH       0.060700
     28 HM          43.0770    15.4110   146.0400 h5         1 NFH       0.041200
     29 HN          40.1990    13.9890   144.5400 h1         1 NFH       0.070700
     30 HNA         41.9580    13.9230   144.6700 h1         1 NFH       0.070700
     31 HON         39.8250    17.1450   145.1060 ho         1 NFH       0.476000
     32 HA1         40.5650    12.3210   139.9700 h1         1 NFH       0.077700
     33 HD1         41.8550    17.7130   139.7750 hc         1 NFH       0.033533
     34 HD1A        40.6710    16.8400   140.7520 hc         1 NFH       0.033533
     35 HD1B        41.5560    18.2150   141.4520 hc         1 NFH       0.033533
     36 HD2         44.3200    17.3570   140.0720 hc         1 NFH       0.033533
     37 HD2A        44.2260    17.9490   141.7460 hc         1 NFH       0.033533
     38 HD2B        44.9460    16.3610   141.3990 hc         1 NFH       0.033533
     39 HG1         37.5040    10.1340   140.0270 hc         1 NFH       0.040700
     40 HG1A        37.7740    11.2910   138.7230 hc         1 NFH       0.040700
     41 HG1B        39.1300    10.3230   139.3470 hc         1 NFH       0.040700
     42 HG2         38.2330    10.5210   142.3200 hc         1 NFH       0.040700
     43 HG2A        39.9270    10.7130   141.8360 hc         1 NFH       0.040700
     44 HG2B        39.1270    11.9620   142.8110 hc         1 NFH       0.040700
     45 HG3         36.4380    12.0780   141.3450 hc         1 NFH       0.040700
     46 HG3A        37.3820    13.5190   141.7480 hc         1 NFH       0.040700
     47 HG3B        36.8410    13.2460   140.0790 hc         1 NFH       0.040700
     48 HN2         39.7180    12.7100   135.5900 h1         1 NFH       0.042033
     49 HN2A        38.3310    13.6720   136.1850 h1         1 NFH       0.042033
     50 H29         39.9760    14.3830   136.1700 h1         1 NFH       0.042033
     51 O1          38.8610    14.7840   138.7840 o          1 NFH      -0.611100
@<TRIPOS>BOND
     1     1     3 2   
     2     1     5 1   
     3     1     7 1   
     4     2    10 1   
     5     2    12 1   
     6     2    13 1   
     7     4     6 1   
     8     4    14 1   
     9     4    51 2   
    10     5    14 1   
    11     5    22 1   
    12     6    21 1   
    13     6    23 1   
    14     7     8 1   
    15     7    12 1   
    16     7    24 1   
    17     8     9 1   
    18     8    25 1   
    19     8    26 1   
    20     9    16 1   
    21     9    17 1   
    22     9    27 1   
    23    10    11 2   
    24    10    28 1   
    25    12    29 1   
    26    12    30 1   
    27    13    31 1   
    28    14    15 1   
    29    14    32 1   
    30    15    18 1   
    31    15    19 1   
    32    15    20 1   
    33    16    33 1   
    34    16    34 1   
    35    16    35 1   
    36    17    36 1   
    37    17    37 1   
    38    17    38 1   
    39    18    39 1   
    40    18    40 1   
    41    18    41 1   
    42    19    42 1   
    43    19    43 1   
    44    19    44 1   
    45    20    45 1   
    46    20    46 1   
    47    20    47 1   
    48    21    48 1   
    49    21    49 1   
    50    21    50 1   
@<TRIPOS>SUBSTRUCTURE
     1 NFH         1 TEMP              0 ****  ****    0 ROOT
