@<TRIPOS>MOLECULE
NFI
   42    44     1     0     0
SMALL
No Charge or Current Charge


@<TRIPOS>ATOM
      1 N1          59.5070    81.3330   126.6290 ns         1 NFI      -0.137000
      2 C4          58.3870    80.7480   132.2480 ca         1 NFI      -0.059500
      3 C5          57.4370    80.5450   131.2190 ca         1 NFI      -0.173600
      4 C6          56.2680    79.8010   131.5160 ca         1 NFI      -0.059500
      5 C7          57.6890    81.1270   129.8410 c          1 NFI       0.586700
      6 C8          56.7270    80.7850   128.6830 c3         1 NFI      -0.169400
      7 C10         58.3520    80.5630   126.7040 c          1 NFI       0.591100
      8 C13         63.1050    81.9050   125.8010 ca         1 NFI      -0.084000
      9 C15         62.5410    79.6370   125.2150 ca         1 NFI      -0.083800
     10 C17         64.5530    78.9560   124.4230 cc         1 NFI       0.024900
     11 C20         65.7020    78.1790   123.8440 c          1 NFI       0.726200
     12 C1          56.0640    79.2750   132.8040 ca         1 NFI      -0.126000
     13 C2          57.0170    79.4820   133.8130 ca         1 NFI      -0.084000
     14 C3          58.1780    80.2190   133.5330 ca         1 NFI      -0.126000
     15 O1          58.6470    81.8670   129.6450 o          1 NFI      -0.542100
     16 C9          57.1300    81.3050   127.2710 c3         1 NFI      -0.154400
     17 O2          58.2700    79.3970   126.3330 o          1 NFI      -0.604100
     18 C11         60.8230    81.0510   126.1640 ca         1 NFI      -0.075000
     19 C12         61.7770    82.0970   126.2390 ca         1 NFI      -0.166000
     20 C14         63.4550    80.6510   125.2900 ca         1 NFI       0.028100
     21 C16         61.2130    79.7910   125.6400 ca         1 NFI      -0.093000
     22 O3          64.6980    80.2910   124.8210 os         1 NFI      -0.157200
     23 C18         63.2450    78.5220   124.6500 cd         1 NFI      -0.170400
     24 C19         62.6580    77.1590   124.3680 c3         1 NFI      -0.008900
     25 O4          66.7830    78.7440   123.7250 o          1 NFI      -0.695500
     26 O5          65.5440    77.0130   123.5050 o          1 NFI      -0.695500
     27 H1          59.3950    82.2730   126.9850 hn         1 NFI       0.163000
     28 H3          55.5040    79.6230   130.7640 ha         1 NFI       0.126000
     29 H4          55.7380    81.1610   128.9700 hc         1 NFI       0.070700
     30 H5          56.5520    79.7030   128.6850 hc         1 NFI       0.070700
     31 H6          63.8370    82.7070   125.8590 ha         1 NFI       0.119000
     32 H7          55.1630    78.7060   133.0200 ha         1 NFI       0.116000
     33 H8          56.8560    79.0740   134.8090 ha         1 NFI       0.112000
     34 H9          58.9180    80.3820   134.3140 ha         1 NFI       0.116000
     35 H10         57.3260    82.3830   127.3260 hc         1 NFI       0.069200
     36 H11         56.2860    81.1280   126.5940 hc         1 NFI       0.069200
     37 H12         61.4880    83.0660   126.6400 ha         1 NFI       0.098000
     38 H13         60.5230    78.9580   125.5620 ha         1 NFI       0.142000
     39 H14         63.1860    76.3800   124.9300 hc         1 NFI       0.037033
     40 H15         61.6000    77.1040   124.6480 hc         1 NFI       0.037033
     41 H16         62.7270    76.9140   123.3020 hc         1 NFI       0.037033
     42 H2          59.2960    81.3150   132.0560 ha         1 NFI       0.126000
@<TRIPOS>BOND
     1     1     7 1   
     2     1    18 1   
     3     1    27 1   
     4     2     3 ar  
     5     2    14 ar  
     6     2    42 1   
     7     3     4 ar  
     8     3     5 1   
     9     4    12 ar  
    10     4    28 1   
    11     5     6 1   
    12     5    15 2   
    13     6    16 1   
    14     6    29 1   
    15     6    30 1   
    16     7    16 1   
    17     7    17 2   
    18     8    19 ar  
    19     8    20 ar  
    20     8    31 1   
    21     9    20 ar  
    22     9    21 ar  
    23     9    23 1   
    24    10    11 1   
    25    10    22 1   
    26    10    23 2   
    27    11    25 1   
    28    11    26 1   
    29    12    13 ar  
    30    12    32 1   
    31    13    14 ar  
    32    13    33 1   
    33    14    34 1   
    34    16    35 1   
    35    16    36 1   
    36    18    19 ar  
    37    18    21 ar  
    38    19    37 1   
    39    20    22 1   
    40    21    38 1   
    41    23    24 1   
    42    24    39 1   
    43    24    40 1   
    44    24    41 1   
@<TRIPOS>SUBSTRUCTURE
     1 NFI         1 TEMP              0 ****  ****    0 ROOT
