@<TRIPOS>MOLECULE
NFI
   42    44     1     0     0
SMALL
abcg2


@<TRIPOS>ATOM
      1 N1          59.4280    81.0050   126.8760 ns         1 NFI      -0.137000
      2 C4          58.2660    81.3740   132.0790 ca         1 NFI      -0.059500
      3 C5          57.5150    80.7260   131.0910 ca         1 NFI      -0.173600
      4 C6          56.6410    79.6990   131.4640 ca         1 NFI      -0.059500
      5 C7          57.6730    81.1580   129.6750 c          1 NFI       0.586700
      6 C8          56.8360    80.4720   128.6160 c3         1 NFI      -0.169400
      7 C10         58.2580    80.4390   126.4880 c          1 NFI       0.591100
      8 C13         63.0890    81.3810   126.7000 ca         1 NFI      -0.084000
      9 C15         62.4260    79.5160   125.2670 ca         1 NFI      -0.083800
     10 C17         64.4590    78.9180   124.5200 cc         1 NFI       0.024900
     11 C20         65.7120    78.3590   123.8980 c          1 NFI       0.726200
     12 C1          56.5210    79.3310   132.7980 ca         1 NFI      -0.126000
     13 C2          57.2700    79.9830   133.7720 ca         1 NFI      -0.084000
     14 C3          58.1440    81.0060   133.4100 ca         1 NFI      -0.126000
     15 O1          58.4500    82.0580   129.3840 o          1 NFI      -0.542100
     16 C9          57.0300    81.0000   127.1900 c3         1 NFI      -0.154400
     17 O2          58.1650    79.5440   125.6500 o          1 NFI      -0.604100
     18 C11         60.7460    80.7210   126.4680 ca         1 NFI      -0.075000
     19 C12         61.7500    81.5510   127.0140 ca         1 NFI      -0.166000
     20 C14         63.3980    80.3570   125.8200 ca         1 NFI       0.028100
     21 C16         61.0760    79.6940   125.5870 ca         1 NFI      -0.093000
     22 O3          64.6330    80.0070   125.3710 os         1 NFI      -0.157200
     23 C18         63.1380    78.5850   124.4250 cd         1 NFI      -0.170400
     24 C19         62.4920    77.4930   123.6390 c3         1 NFI      -0.008900
     25 O4          66.7830    78.9660   124.1390 o          1 NFI      -0.695500
     26 O5          65.5680    77.3310   123.1900 o          1 NFI      -0.695500
     27 H1          59.3340    81.7010   127.6060 hn         1 NFI       0.163000
     28 H3          56.0500    79.1820   130.7220 ha         1 NFI       0.126000
     29 H4          55.7880    80.5960   128.9020 hc         1 NFI       0.070700
     30 H5          57.0240    79.3960   128.6620 hc         1 NFI       0.070700
     31 H6          63.8520    82.0220   127.1220 ha         1 NFI       0.119000
     32 H7          55.8420    78.5350   133.0770 ha         1 NFI       0.116000
     33 H8          57.1740    79.6960   134.8120 ha         1 NFI       0.112000
     34 H9          58.7290    81.5130   134.1670 ha         1 NFI       0.116000
     35 H10         57.0730    82.0900   127.2060 hc         1 NFI       0.069200
     36 H11         56.1730    80.7030   126.5890 hc         1 NFI       0.069200
     37 H12         61.4600    82.3400   127.6970 ha         1 NFI       0.098000
     38 H13         60.3100    79.0610   125.1730 ha         1 NFI       0.142000
     39 H14         62.0260    76.7630   124.3070 hc         1 NFI       0.037033
     40 H15         61.6960    77.8960   123.0070 hc         1 NFI       0.037033
     41 H16         63.2220    76.9840   123.0170 hc         1 NFI       0.037033
     42 H2          58.9420    82.1660   131.7890 ha         1 NFI       0.126000
@<TRIPOS>BOND
     1     1     7 1   
     2     1    18 1   
     3     1    27 1   
     4     2     3 ar  
     5     2    14 ar  
     6     2    42 1   
     7     3     4 ar  
     8     3     5 1   
     9     4    12 ar  
    10     4    28 1   
    11     5     6 1   
    12     5    15 2   
    13     6    16 1   
    14     6    29 1   
    15     6    30 1   
    16     7    16 1   
    17     7    17 2   
    18     8    19 ar  
    19     8    20 ar  
    20     8    31 1   
    21     9    20 ar  
    22     9    21 ar  
    23     9    23 1   
    24    10    11 1   
    25    10    22 1   
    26    10    23 2   
    27    11    25 1   
    28    11    26 1   
    29    12    13 ar  
    30    12    32 1   
    31    13    14 ar  
    32    13    33 1   
    33    14    34 1   
    34    16    35 1   
    35    16    36 1   
    36    18    19 ar  
    37    18    21 ar  
    38    19    37 1   
    39    20    22 1   
    40    21    38 1   
    41    23    24 1   
    42    24    39 1   
    43    24    40 1   
    44    24    41 1   
@<TRIPOS>SUBSTRUCTURE
     1 NFI         1 TEMP              0 ****  ****    0 ROOT
