@<TRIPOS>MOLECULE
NFJ
   86    89     1     0     0
SMALL
bcc


@<TRIPOS>ATOM
      1 C13          4.8570     3.7340    -2.1150 c3         1 NFJ      -0.071900
      2 C15          1.8170     1.6230     0.0600 c3         1 NFJ       0.189800
      3 C20         -2.9240     0.8890    -0.3830 c          1 NFJ       0.759100
      4 C24         -5.4690     0.9190    -2.3120 c5         1 NFJ       0.112400
      5 C26         -6.1200    -0.7860    -0.8120 c5         1 NFJ      -0.133700
      6 C28         -5.5620    -2.0630    -0.1890 c5         1 NFJ      -0.094400
      7 C01          3.0290    -3.4140     0.9880 ca         1 NFJ      -0.029300
      8 C02          3.5870    -3.0830    -0.2440 ca         1 NFJ      -0.137500
      9 C03          4.0110    -1.7930    -0.5120 ca         1 NFJ      -0.038000
     10 C04          3.8790    -0.8200     0.4710 ca         1 NFJ      -0.295500
     11 C05          3.3470    -1.1330     1.7150 ca         1 NFJ      -0.038000
     12 C06          2.9140    -2.4280     1.9640 ca         1 NFJ      -0.137500
     13 C11          3.1100     1.8590    -2.1080 c3         1 NFJ       0.242800
     14 C12          3.4180     3.3260    -2.4440 c3         1 NFJ      -0.073700
     15 C14          2.4290     4.3300    -1.8440 c3         1 NFJ      -0.071900
     16 C16          0.6690     0.7850    -0.5120 c3         1 NFJ       0.114100
     17 C18         -0.5900     0.9320     0.3570 c3         1 NFJ       0.090700
     18 C23         -5.1890     0.4270    -0.9030 c5         1 NFJ       0.139100
     19 C27         -6.3630    -1.1860    -2.2850 c5         1 NFJ       0.327900
     20 C29         -4.9940    -2.8040    -1.3930 c5         1 NFJ       0.130400
     21 C31         -0.4340     0.3480     1.7750 c3         1 NFJ      -0.061100
     22 C32         -1.7090     0.4680     2.5590 ca         1 NFJ      -0.088300
     23 C33         -2.6160    -0.5870     2.6140 ca         1 NFJ      -0.117000
     24 C34         -3.8260    -0.4520     3.2810 ca         1 NFJ      -0.125500
     25 C35         -4.1430     0.7430     3.9120 ca         1 NFJ      -0.124000
     26 C36         -3.2410     1.8000     3.8720 ca         1 NFJ      -0.125500
     27 C37         -2.0370     1.6620     3.1970 ca         1 NFJ      -0.117000
     28 C38          3.7720    -5.5980     1.9090 c3         1 NFJ      -0.130100
     29 C39          0.9870     4.1740    -2.3040 c3         1 NFJ      -0.091100
     30 C40          5.9030     3.1350    -3.0460 c3         1 NFJ      -0.091100
     31 C41          2.6170    -4.8370     1.2660 c3         1 NFJ       0.187400
     32 N10          3.0660     1.5200    -0.6830 n3         1 NFJ      -0.779500
     33 N19         -1.7060     0.3130    -0.3190 ns         1 NFJ      -0.549900
     34 O08          4.5340     1.5330     1.3640 o          1 NFJ      -0.610800
     35 O09          5.4560     0.7860    -0.8480 o          1 NFJ      -0.610800
     36 O17          1.0050    -0.5580    -0.7460 oh         1 NFJ      -0.589800
     37 O21         -3.1690     2.0520    -0.1440 o          1 NFJ      -0.590000
     38 O22         -3.8380    -0.0040    -0.7820 os         1 NFJ      -0.428900
     39 O25         -5.6550    -0.2560    -3.0740 os         1 NFJ      -0.412600
     40 O30         -5.8690    -2.4690    -2.4680 os         1 NFJ      -0.394600
     41 O42          1.4780    -4.8090     2.0950 oh         1 NFJ      -0.596800
     42 S07          4.3490     0.8470     0.0930 sy         1 NFJ       1.329200
     43 H131         4.9260     4.8240    -2.1790 hc         1 NFJ       0.040200
     44 H132         5.0850     3.4880    -1.0740 hc         1 NFJ       0.040200
     45 H151         1.4930     2.6650     0.0990 h1         1 NFJ       0.062700
     46 H152         2.0020     1.3520     1.1000 h1         1 NFJ       0.062700
     47 H241        -4.6570     1.5040    -2.7470 h1         1 NFJ       0.063200
     48 H261        -7.0460    -0.4710    -0.3320 hc         1 NFJ       0.075700
     49 H281        -4.8180    -1.8850     0.5870 hc         1 NFJ       0.059200
     50 H282        -6.3750    -2.6380     0.2570 hc         1 NFJ       0.059200
     51 H021         3.6830    -3.8390    -1.0130 ha         1 NFJ       0.144000
     52 H031         4.4260    -1.5540    -1.4810 ha         1 NFJ       0.154500
     53 H051         3.2670    -0.3860     2.4930 ha         1 NFJ       0.154500
     54 H061         2.4970    -2.6640     2.9340 ha         1 NFJ       0.144000
     55 H111         2.1470     1.5810    -2.5400 h1         1 NFJ       0.057200
     56 H112         3.8350     1.2160    -2.6040 h1         1 NFJ       0.057200
     57 H121         3.3060     3.3820    -3.5360 hc         1 NFJ       0.051700
     58 H141         2.4930     4.3080    -0.7510 hc         1 NFJ       0.040200
     59 H142         2.7670     5.3300    -2.1290 hc         1 NFJ       0.040200
     60 H161         0.4000     1.1810    -1.4950 h1         1 NFJ       0.093700
     61 H181        -0.8100     1.9980     0.4420 h1         1 NFJ       0.091700
     62 H231        -5.4150     1.1770    -0.1460 h1         1 NFJ       0.085700
     63 H271        -7.4190    -1.1870    -2.5770 h2         1 NFJ       0.079700
     64 H291        -3.9680    -2.4940    -1.6100 h1         1 NFJ       0.055700
     65 H292        -5.0030    -3.8880    -1.2760 h1         1 NFJ       0.055700
     66 H311        -0.1450    -0.7050     1.7100 hc         1 NFJ       0.054700
     67 H312         0.3700     0.8680     2.3010 hc         1 NFJ       0.054700
     68 H331        -2.3710    -1.5280     2.1340 ha         1 NFJ       0.129000
     69 H341        -4.5190    -1.2830     3.3100 ha         1 NFJ       0.130500
     70 H351        -5.0830     0.8500     4.4360 ha         1 NFJ       0.131000
     71 H361        -3.4770     2.7330     4.3670 ha         1 NFJ       0.130500
     72 H371        -1.3410     2.4930     3.1660 ha         1 NFJ       0.129000
     73 H381         4.6380    -5.6210     1.2470 hc         1 NFJ       0.048033
     74 H383         4.0720    -5.1290     2.8470 hc         1 NFJ       0.048033
     75 H382         3.4860    -6.6320     2.1140 hc         1 NFJ       0.048033
     76 H393         0.5450     3.2170    -2.0220 hc         1 NFJ       0.034533
     77 H391         0.3550     4.9540    -1.8780 hc         1 NFJ       0.034533
     78 H392         0.9150     4.2500    -3.3910 hc         1 NFJ       0.034533
     79 H401         6.9060     3.4560    -2.7640 hc         1 NFJ       0.034533
     80 H402         5.8960     2.0460    -3.0320 hc         1 NFJ       0.034533
     81 H403         5.7320     3.4550    -4.0750 hc         1 NFJ       0.034533
     82 H411         2.3840    -5.3160     0.3050 h1         1 NFJ       0.041700
     83 H191        -1.6490    -0.6810    -0.4810 hn         1 NFJ       0.329500
     84 H171         1.3590    -0.9530     0.0580 ho         1 NFJ       0.407000
     85 H421         1.2810    -5.7120     2.3650 ho         1 NFJ       0.411000
     86 H242        -6.3710     1.5440    -2.3070 h1         1 NFJ       0.063200
@<TRIPOS>BOND
     1     1    14 1   
     2     1    30 1   
     3     1    43 1   
     4     1    44 1   
     5     2    16 1   
     6     2    32 1   
     7     2    45 1   
     8     2    46 1   
     9     3    33 1   
    10     3    37 2   
    11     3    38 1   
    12     4    18 1   
    13     4    39 1   
    14     4    47 1   
    15     4    86 1   
    16     5     6 1   
    17     5    18 1   
    18     5    19 1   
    19     5    48 1   
    20     6    20 1   
    21     6    49 1   
    22     6    50 1   
    23     7     8 ar  
    24     7    12 ar  
    25     7    31 1   
    26     8     9 ar  
    27     8    51 1   
    28     9    10 ar  
    29     9    52 1   
    30    10    11 ar  
    31    10    42 1   
    32    11    12 ar  
    33    11    53 1   
    34    12    54 1   
    35    13    14 1   
    36    13    32 1   
    37    13    55 1   
    38    13    56 1   
    39    14    15 1   
    40    14    57 1   
    41    15    29 1   
    42    15    58 1   
    43    15    59 1   
    44    16    17 1   
    45    16    36 1   
    46    16    60 1   
    47    17    21 1   
    48    17    33 1   
    49    17    61 1   
    50    18    38 1   
    51    18    62 1   
    52    19    39 1   
    53    19    40 1   
    54    19    63 1   
    55    20    40 1   
    56    20    64 1   
    57    20    65 1   
    58    21    22 1   
    59    21    66 1   
    60    21    67 1   
    61    22    23 ar  
    62    22    27 ar  
    63    23    24 ar  
    64    23    68 1   
    65    24    25 ar  
    66    24    69 1   
    67    25    26 ar  
    68    25    70 1   
    69    26    27 ar  
    70    26    71 1   
    71    27    72 1   
    72    28    31 1   
    73    28    73 1   
    74    28    74 1   
    75    28    75 1   
    76    29    76 1   
    77    29    77 1   
    78    29    78 1   
    79    30    79 1   
    80    30    80 1   
    81    30    81 1   
    82    31    41 1   
    83    31    82 1   
    84    32    42 1   
    85    33    83 1   
    86    34    42 2   
    87    35    42 2   
    88    36    84 1   
    89    41    85 1   
@<TRIPOS>SUBSTRUCTURE
     1 NFJ         1 TEMP              0 ****  ****    0 ROOT
