@<TRIPOS>MOLECULE
NFJ
   86    89     1     0     0
SMALL
No Charge or Current Charge


@<TRIPOS>ATOM
      1 C13          5.0350     3.3410    -2.8510 c3         1 NFJ      -0.071900
      2 C15          1.7040     1.3790    -0.3970 c3         1 NFJ       0.189800
      3 C20         -3.1610     0.6080    -0.1280 c          1 NFJ       0.643100
      4 C24         -5.6830     1.7900    -1.3830 c5         1 NFJ       0.135600
      5 C26         -6.5440    -0.4760    -1.3500 c5         1 NFJ      -0.133700
      6 C28         -5.9440    -1.8480    -1.8240 c5         1 NFJ      -0.094400
      7 C01          2.9970    -2.6020     2.4140 ca         1 NFJ      -0.029300
      8 C02          3.0320    -2.8190     1.0220 ca         1 NFJ      -0.119500
      9 C03          3.4590    -1.8030     0.1500 ca         1 NFJ      -0.020000
     10 C04          3.8540    -0.5520     0.6630 ca         1 NFJ      -0.295500
     11 C05          3.8240    -0.3270     2.0540 ca         1 NFJ      -0.020000
     12 C06          3.4000    -1.3490     2.9210 ca         1 NFJ      -0.119500
     13 C11          2.9360     1.7410    -2.6210 c3         1 NFJ       0.242800
     14 C12          3.4810     3.2070    -2.8010 c3         1 NFJ      -0.073700
     15 C14          2.8510     4.2690    -1.8540 c3         1 NFJ      -0.071900
     16 C16          0.3920     0.7320    -0.9270 c3         1 NFJ       0.137300
     17 C18         -0.6690     0.4160     0.1730 c3         1 NFJ       0.090700
     18 C23         -5.4850     0.4430    -0.6260 c5         1 NFJ       0.162300
     19 C27         -6.8430     0.2750    -2.6900 c5         1 NFJ       0.374300
     20 C29         -5.4430    -1.4880    -3.2450 c5         1 NFJ       0.153600
     21 C31         -0.2550    -0.6880     1.1910 c3         1 NFJ      -0.061100
     22 C32         -1.3320    -0.9630     2.2350 ca         1 NFJ      -0.088300
     23 C33         -2.1950    -2.0680     2.0970 ca         1 NFJ      -0.099000
     24 C34         -3.1980    -2.3090     3.0510 ca         1 NFJ      -0.107500
     25 C35         -3.3430    -1.4480     4.1520 ca         1 NFJ      -0.106000
     26 C36         -2.4840    -0.3460     4.2970 ca         1 NFJ      -0.107500
     27 C37         -1.4810    -0.1040     3.3410 ca         1 NFJ      -0.099000
     28 C38          3.6990    -4.2500     4.2220 c3         1 NFJ      -0.130100
     29 C39          1.3500     4.5360    -2.1060 c3         1 NFJ      -0.091100
     30 C40          5.7250     2.5390    -3.9770 c3         1 NFJ      -0.091100
     31 C41          2.5420    -3.7200     3.3540 c3         1 NFJ       0.210600
     32 N10          2.8840     1.0960    -1.2700 n3         1 NFJ      -0.779500
     33 N19         -1.9500     0.0690    -0.4540 ns         1 NFJ      -0.482900
     34 O08          4.7340     1.9640     0.2810 o          1 NFJ      -0.540000
     35 O09          5.2230     0.1450    -1.4690 o          1 NFJ      -0.540000
     36 O17          0.7440    -0.4540    -1.6590 oh         1 NFJ      -0.652000
     37 O21         -3.3360     1.5050     0.6840 o          1 NFJ      -0.541000
     38 O22         -4.1250    -0.0310    -0.8550 os         1 NFJ      -0.452100
     39 O25         -5.9210     1.3780    -2.7430 os         1 NFJ      -0.459000
     40 O30         -6.5030    -0.6500    -3.7400 os         1 NFJ      -0.441000
     41 O42          1.4930    -3.2610     4.2130 oh         1 NFJ      -0.659000
     42 S07          4.3490     0.7630    -0.4670 sy         1 NFJ       1.187600
     43 H131         5.2860     4.3970    -3.0110 hc         1 NFJ       0.040200
     44 H132         5.4830     3.0780    -1.8900 hc         1 NFJ       0.040200
     45 H151         1.5480     2.4540    -0.2640 h1         1 NFJ       0.062700
     46 H152         1.8800     0.9990     0.6140 h1         1 NFJ       0.062700
     47 H241        -4.8110     2.4560    -1.3380 h1         1 NFJ       0.063200
     48 H261        -7.4490    -0.6010    -0.7460 hc         1 NFJ       0.075700
     49 H281        -5.1640    -2.2580    -1.1740 hc         1 NFJ       0.059200
     50 H282        -6.7280    -2.6110    -1.8860 hc         1 NFJ       0.059200
     51 H021         2.7270    -3.7780     0.6110 ha         1 NFJ       0.126000
     52 H031         3.4730    -1.9880    -0.9230 ha         1 NFJ       0.136500
     53 H051         4.1200     0.6350     2.4690 ha         1 NFJ       0.136500
     54 H061         3.3760    -1.1640     3.9920 ha         1 NFJ       0.126000
     55 H111         1.9190     1.7440    -3.0340 h1         1 NFJ       0.057200
     56 H112         3.4980     1.0870    -3.2990 h1         1 NFJ       0.057200
     57 H121         3.1570     3.4960    -3.8080 hc         1 NFJ       0.051700
     58 H141         3.0170     3.9850    -0.8090 hc         1 NFJ       0.040200
     59 H142         3.3740     5.2240    -1.9880 hc         1 NFJ       0.040200
     60 H161        -0.0590     1.4570    -1.6180 h1         1 NFJ       0.093700
     61 H181        -0.8160     1.3440     0.7440 h1         1 NFJ       0.091700
     62 H231        -5.6800     0.5210     0.4530 h1         1 NFJ       0.085700
     63 H271        -7.8830     0.6210    -2.7650 h2         1 NFJ       0.079700
     64 H291        -4.5020    -0.9200    -3.2310 h1         1 NFJ       0.055700
     65 H292        -5.3190    -2.3670    -3.8920 h1         1 NFJ       0.055700
     66 H311        -0.0180    -1.6110     0.6500 hc         1 NFJ       0.054700
     67 H312         0.6690    -0.4000     1.7030 hc         1 NFJ       0.054700
     68 H331        -2.0940    -2.7370     1.2450 ha         1 NFJ       0.111000
     69 H341        -3.8640    -3.1620     2.9370 ha         1 NFJ       0.112500
     70 H351        -4.1190    -1.6340     4.8910 ha         1 NFJ       0.113000
     71 H361        -2.5950     0.3220     5.1480 ha         1 NFJ       0.112500
     72 H371        -0.8230     0.7540     3.4580 ha         1 NFJ       0.111000
     73 H381         4.5170    -4.6070     3.5860 hc         1 NFJ       0.048033
     74 H383         4.0920    -3.4650     4.8780 hc         1 NFJ       0.048033
     75 H382         3.3650    -5.0880     4.8460 hc         1 NFJ       0.048033
     76 H393         0.7530     3.6220    -2.0290 hc         1 NFJ       0.034533
     77 H391         0.9650     5.2580    -1.3760 hc         1 NFJ       0.034533
     78 H392         1.1980     4.9540    -3.1080 hc         1 NFJ       0.034533
     79 H401         6.7940     2.7780    -4.0080 hc         1 NFJ       0.034533
     80 H402         5.6300     1.4590    -3.8210 hc         1 NFJ       0.034533
     81 H403         5.2930     2.7890    -4.9530 hc         1 NFJ       0.034533
     82 H411         2.1720    -4.5560     2.7440 h1         1 NFJ       0.041700
     83 H191        -1.9630    -0.6630    -1.1510 hn         1 NFJ       0.329500
     84 H171         1.7140    -0.3320    -1.8030 ho         1 NFJ       0.446000
     85 H421         1.2000    -4.0350     4.7410 ho         1 NFJ       0.450000
     86 H242        -6.5610     2.3340    -1.0110 h1         1 NFJ       0.063200
@<TRIPOS>BOND
     1     1    14 1   
     2     1    30 1   
     3     1    43 1   
     4     1    44 1   
     5     2    16 1   
     6     2    32 1   
     7     2    45 1   
     8     2    46 1   
     9     3    33 1   
    10     3    37 2   
    11     3    38 1   
    12     4    18 1   
    13     4    39 1   
    14     4    47 1   
    15     4    86 1   
    16     5     6 1   
    17     5    18 1   
    18     5    19 1   
    19     5    48 1   
    20     6    20 1   
    21     6    49 1   
    22     6    50 1   
    23     7     8 ar  
    24     7    12 ar  
    25     7    31 1   
    26     8     9 ar  
    27     8    51 1   
    28     9    10 ar  
    29     9    52 1   
    30    10    11 ar  
    31    10    42 1   
    32    11    12 ar  
    33    11    53 1   
    34    12    54 1   
    35    13    14 1   
    36    13    32 1   
    37    13    55 1   
    38    13    56 1   
    39    14    15 1   
    40    14    57 1   
    41    15    29 1   
    42    15    58 1   
    43    15    59 1   
    44    16    17 1   
    45    16    36 1   
    46    16    60 1   
    47    17    21 1   
    48    17    33 1   
    49    17    61 1   
    50    18    38 1   
    51    18    62 1   
    52    19    39 1   
    53    19    40 1   
    54    19    63 1   
    55    20    40 1   
    56    20    64 1   
    57    20    65 1   
    58    21    22 1   
    59    21    66 1   
    60    21    67 1   
    61    22    23 ar  
    62    22    27 ar  
    63    23    24 ar  
    64    23    68 1   
    65    24    25 ar  
    66    24    69 1   
    67    25    26 ar  
    68    25    70 1   
    69    26    27 ar  
    70    26    71 1   
    71    27    72 1   
    72    28    31 1   
    73    28    73 1   
    74    28    74 1   
    75    28    75 1   
    76    29    76 1   
    77    29    77 1   
    78    29    78 1   
    79    30    79 1   
    80    30    80 1   
    81    30    81 1   
    82    31    41 1   
    83    31    82 1   
    84    32    42 1   
    85    33    83 1   
    86    34    42 2   
    87    35    42 2   
    88    36    84 1   
    89    41    85 1   
@<TRIPOS>SUBSTRUCTURE
     1 NFJ         1 TEMP              0 ****  ****    0 ROOT
