@<TRIPOS>MOLECULE
NFK
   28    28     1     0     0
SMALL
No Charge or Current Charge


@<TRIPOS>ATOM
      1 O            4.3760     0.5490     0.9840 o          1 NFK      -0.730500
      2 C            3.9720    -0.3330     0.2370 c          1 NFK       0.692000
      3 OXT          4.7180    -1.0820    -0.3790 o          1 NFK      -0.730500
      4 CA           2.4120    -0.6000     0.1620 c3         1 NFK       0.017500
      5 N            1.7160    -0.8340     1.4750 n8         1 NFK      -0.996200
      6 CB           1.6970     0.5310    -0.6190 c3         1 NFK      -0.141400
      7 CG           0.2830     0.1220    -1.0590 c          1 NFK       0.602700
      8 OD1          0.1310    -0.6970    -1.9620 o          1 NFK      -0.566100
      9 CD2         -0.9170     0.7790    -0.4120 ca         1 NFK      -0.217600
     10 CAJ         -0.9180     2.1780    -0.2090 ca         1 NFK      -0.044000
     11 CAH         -2.0200     2.8130     0.3820 ca         1 NFK      -0.163000
     12 CAG         -3.1360     2.0630     0.7720 ca         1 NFK      -0.071000
     13 CAI         -3.1510     0.6740     0.5710 ca         1 NFK      -0.171000
     14 CAO         -2.0470     0.0150    -0.0160 ca         1 NFK       0.024000
     15 NAL         -2.0390    -1.3930    -0.2290 ns         1 NFK      -0.161000
     16 CAF         -2.8400    -2.4180     0.2500 c          1 NFK       0.609900
     17 OAB         -3.7590    -2.2840     1.0540 o          1 NFK      -0.609100
     18 H2           2.2990    -1.5220    -0.4280 h1         1 NFK       0.056700
     19 H3           2.1520    -1.6360     1.9480 hn         1 NFK       0.383500
     20 H4           1.9350    -0.0510     2.1030 hn         1 NFK       0.383500
     21 H6           1.6680     1.4220     0.0160 hc         1 NFK       0.069200
     22 H7           2.2810     0.7440    -1.5220 hc         1 NFK       0.069200
     23 H8          -0.0720     2.7850    -0.5260 ha         1 NFK       0.129000
     24 H9          -2.0110     3.8910     0.5300 ha         1 NFK       0.111000
     25 H10         -3.9930     2.5580     1.2240 ha         1 NFK       0.103000
     26 H11         -4.0400     0.1260     0.8690 ha         1 NFK       0.140000
     27 H12         -1.3160    -1.7030    -0.8660 hn         1 NFK       0.201000
     28 H13         -2.5430    -3.3940    -0.1750 h5         1 NFK       0.010200
@<TRIPOS>BOND
     1     1     2 1   
     2     2     3 1   
     3     2     4 1   
     4     4     5 1   
     5     4     6 1   
     6     4    18 1   
     7     5    19 1   
     8     5    20 1   
     9     6     7 1   
    10     6    21 1   
    11     6    22 1   
    12     7     8 2   
    13     7     9 1   
    14     9    10 ar  
    15     9    14 ar  
    16    10    11 ar  
    17    10    23 1   
    18    11    12 ar  
    19    11    24 1   
    20    12    13 ar  
    21    12    25 1   
    22    13    14 ar  
    23    13    26 1   
    24    14    15 1   
    25    15    16 1   
    26    15    27 1   
    27    16    17 2   
    28    16    28 1   
@<TRIPOS>SUBSTRUCTURE
     1 NFK         1 TEMP              0 ****  ****    0 ROOT
