@<TRIPOS>MOLECULE
NFK
   28    28     1     0     0
SMALL
bcc


@<TRIPOS>ATOM
      1 O            4.9560     0.2260     0.7450 o          1 NFK      -0.835800
      2 C            4.0980     0.1930    -0.1560 c          1 NFK       0.902600
      3 OXT          4.1920     0.7000    -1.2940 o          1 NFK      -0.835800
      4 CA           2.7720    -0.5610     0.1380 c3         1 NFK       0.017500
      5 N            2.6690    -1.1640     1.4570 n8         1 NFK      -0.885800
      6 CB           1.5970     0.3850    -0.0740 c3         1 NFK      -0.141400
      7 CG           0.2550    -0.2990    -0.1730 c          1 NFK       0.602700
      8 OD1          0.1910    -1.4980    -0.3900 o          1 NFK      -0.566100
      9 CD2         -0.9770     0.5290    -0.0430 ca         1 NFK      -0.217600
     10 CAJ         -0.8550     1.9210     0.0010 ca         1 NFK      -0.062000
     11 CAH         -1.9520     2.7520     0.1110 ca         1 NFK      -0.181000
     12 CAG         -3.2150     2.1850     0.1900 ca         1 NFK      -0.089000
     13 CAI         -3.3810     0.8120     0.1460 ca         1 NFK      -0.189000
     14 CAO         -2.2770    -0.0360     0.0190 ca         1 NFK       0.116600
     15 NAL         -2.4210    -1.4160    -0.0500 ns         1 NFK      -0.487100
     16 CAF         -3.5240    -2.1840     0.1000 c          1 NFK       0.676900
     17 OAB         -4.6560    -1.8160     0.3370 o          1 NFK      -0.609100
     18 H2           2.7040    -1.3650    -0.6010 h1         1 NFK       0.056700
     19 H3           3.3450    -1.9150     1.5290 hn         1 NFK       0.328300
     20 H4           2.9820    -0.4810     2.1380 hn         1 NFK       0.328300
     21 H6           1.5780     1.1230     0.7340 hc         1 NFK       0.069200
     22 H7           1.7420     0.9570    -0.9960 hc         1 NFK       0.069200
     23 H8           0.1250     2.3730    -0.0620 ha         1 NFK       0.147000
     24 H9          -1.8230     3.8250     0.1370 ha         1 NFK       0.129000
     25 H10         -4.0890     2.8160     0.2830 ha         1 NFK       0.121000
     26 H11         -4.3750     0.4010     0.2040 ha         1 NFK       0.158000
     27 H12         -1.5540    -1.9130    -0.2350 hn         1 NFK       0.367500
     28 H13         -3.2670    -3.2460    -0.0210 h5         1 NFK       0.010200
@<TRIPOS>BOND
     1     1     2 1   
     2     2     3 1   
     3     2     4 1   
     4     4     5 1   
     5     4     6 1   
     6     4    18 1   
     7     5    19 1   
     8     5    20 1   
     9     6     7 1   
    10     6    21 1   
    11     6    22 1   
    12     7     8 2   
    13     7     9 1   
    14     9    10 ar  
    15     9    14 ar  
    16    10    11 ar  
    17    10    23 1   
    18    11    12 ar  
    19    11    24 1   
    20    12    13 ar  
    21    12    25 1   
    22    13    14 ar  
    23    13    26 1   
    24    14    15 1   
    25    15    16 1   
    26    15    27 1   
    27    16    17 2   
    28    16    28 1   
@<TRIPOS>SUBSTRUCTURE
     1 NFK         1 TEMP              0 ****  ****    0 ROOT
