@<TRIPOS>MOLECULE
NFL
   28    29     1     0     0
SMALL
abcg2


@<TRIPOS>ATOM
      1 F3           0.3130     0.3450    -5.0770 f          1 NFL      -0.122667
      2 C15          0.8620     0.2220    -3.8650 c3         1 NFL       0.351300
      3 F1           1.7690     1.2040    -3.7470 f          1 NFL      -0.122667
      4 F2           1.5530    -0.9290    -3.8670 f          1 NFL      -0.122667
      5 C9          -0.1490     0.2620    -2.7630 ca         1 NFL      -0.165300
      6 C10          0.2980     0.0780    -1.4650 ca         1 NFL      -0.144000
      7 C11         -0.5890     0.1090    -0.3810 ca         1 NFL       0.359000
      8 C12         -1.9480     0.3300    -0.6510 ca         1 NFL      -0.145000
      9 C13         -2.3750     0.5140    -1.9560 ca         1 NFL      -0.095000
     10 C14         -1.4950     0.4860    -3.0270 ca         1 NFL      -0.141000
     11 N2          -0.0320    -0.0810     0.8640 nu         1 NFL      -0.957900
     12 C1          -0.5830    -0.1090     2.1130 ca         1 NFL       0.622900
     13 N1          -1.8970     0.0350     2.2540 nb         1 NFL      -0.781000
     14 C2           0.2870    -0.2960     3.2240 ca         1 NFL      -0.236600
     15 C6           1.7940    -0.4650     3.1110 c          1 NFL       0.727600
     16 O8           2.4240    -0.6320     4.1640 o          1 NFL      -0.704500
     17 O7           2.2960    -0.4210     1.9570 o          1 NFL      -0.704500
     18 C3          -0.3040    -0.3200     4.4730 ca         1 NFL      -0.031000
     19 C4          -1.6780    -0.1660     4.6220 ca         1 NFL      -0.240000
     20 C5          -2.4220     0.0070     3.4730 ca         1 NFL       0.355900
     21 H10          1.3510    -0.0940    -1.2710 ha         1 NFL       0.138000
     22 H12         -2.6600     0.3560     0.1570 ha         1 NFL       0.151000
     23 H13         -3.4280     0.6840    -2.1400 ha         1 NFL       0.099000
     24 H14         -1.8610     0.6360    -4.0320 ha         1 NFL       0.112000
     25 HN2          0.9910    -0.2050     0.9280 hn         1 NFL       0.575000
     26 H3           0.3240    -0.4610     5.3430 ha         1 NFL       0.133000
     27 H4          -2.1510    -0.1800     5.5950 ha         1 NFL       0.101000
     28 H5          -3.4990     0.1290     3.5280 h4         1 NFL      -0.011900
@<TRIPOS>BOND
     1     1     2 1   
     2     2     3 1   
     3     2     4 1   
     4     2     5 1   
     5     5     6 ar  
     6     5    10 ar  
     7     6     7 ar  
     8     6    21 1   
     9     7     8 ar  
    10     7    11 1   
    11     8     9 ar  
    12     8    22 1   
    13     9    10 ar  
    14     9    23 1   
    15    10    24 1   
    16    11    12 1   
    17    11    25 1   
    18    12    13 ar  
    19    12    14 ar  
    20    13    20 ar  
    21    14    15 1   
    22    14    18 ar  
    23    15    16 1   
    24    15    17 1   
    25    18    19 ar  
    26    18    26 1   
    27    19    20 ar  
    28    19    27 1   
    29    20    28 1   
@<TRIPOS>SUBSTRUCTURE
     1 NFL         1 TEMP              0 ****  ****    0 ROOT
