@<TRIPOS>MOLECULE
NFL
   28    29     1     0     0
SMALL
No Charge or Current Charge


@<TRIPOS>ATOM
      1 F3           0.0070    -0.5060    -5.1070 f          1 NFL      -0.122667
      2 C15          0.7220    -0.2380    -3.9900 c3         1 NFL       0.351300
      3 F1           1.5870     0.7520    -4.3030 f          1 NFL      -0.122667
      4 F2           1.4610    -1.3420    -3.7330 f          1 NFL      -0.122667
      5 C9          -0.1680     0.1540    -2.8010 ca         1 NFL      -0.165300
      6 C10          0.2760    -0.0520    -1.4750 ca         1 NFL      -0.144000
      7 C11         -0.5240     0.2990    -0.3730 ca         1 NFL       0.359000
      8 C12         -1.7760     0.8990    -0.6030 ca         1 NFL      -0.145000
      9 C13         -2.2290     1.1200    -1.9140 ca         1 NFL      -0.095000
     10 C14         -1.4310     0.7490    -3.0070 ca         1 NFL      -0.141000
     11 N2          -0.0130     0.0880     0.9090 nu         1 NFL      -0.957900
     12 C1          -0.5270    -0.1380     2.1630 ca         1 NFL       0.622900
     13 N1          -1.8460    -0.3670     2.1810 nb         1 NFL      -0.781000
     14 C2           0.2880    -0.1710     3.3120 ca         1 NFL      -0.236600
     15 C6           1.7690     0.0650     3.2400 c          1 NFL       0.727600
     16 O8           2.3420     0.4250     4.2570 o          1 NFL      -0.704500
     17 O7           2.3510    -0.1350     2.1820 o          1 NFL      -0.704500
     18 C3          -0.3320    -0.4270     4.5530 ca         1 NFL      -0.031000
     19 C4          -1.7150    -0.6520     4.5730 ca         1 NFL      -0.240000
     20 C5          -2.4300    -0.6150     3.3690 ca         1 NFL       0.355900
     21 H10          1.2520    -0.4960    -1.2970 ha         1 NFL       0.138000
     22 H12         -2.3950     1.2130     0.2310 ha         1 NFL       0.151000
     23 H13         -3.1970     1.5870    -2.0820 ha         1 NFL       0.099000
     24 H14         -1.7960     0.9350    -4.0160 ha         1 NFL       0.112000
     25 HN2          1.0090     0.0020     0.9540 hn         1 NFL       0.575000
     26 H3           0.2430    -0.4610     5.4770 ha         1 NFL       0.133000
     27 H4          -2.2300    -0.8560     5.5070 ha         1 NFL       0.101000
     28 H5          -3.5050    -0.7920     3.3550 h4         1 NFL      -0.011900
@<TRIPOS>BOND
     1     1     2 1   
     2     2     3 1   
     3     2     4 1   
     4     2     5 1   
     5     5     6 ar  
     6     5    10 ar  
     7     6     7 ar  
     8     6    21 1   
     9     7     8 ar  
    10     7    11 1   
    11     8     9 ar  
    12     8    22 1   
    13     9    10 ar  
    14     9    23 1   
    15    10    24 1   
    16    11    12 1   
    17    11    25 1   
    18    12    13 ar  
    19    12    14 ar  
    20    13    20 ar  
    21    14    15 1   
    22    14    18 ar  
    23    15    16 1   
    24    15    17 1   
    25    18    19 ar  
    26    18    26 1   
    27    19    20 ar  
    28    19    27 1   
    29    20    28 1   
@<TRIPOS>SUBSTRUCTURE
     1 NFL         1 TEMP              0 ****  ****    0 ROOT
