@<TRIPOS>MOLECULE
NFM
   22    22     1     0     0
SMALL
bcc


@<TRIPOS>ATOM
      1 C1           0.5270     0.8350     0.2320 ca         1 NFM       0.739200
      2 N1           1.8330     0.9730    -0.0090 nb         1 NFM      -0.810000
      3 O1          -3.1020     1.5820    -0.1660 o          1 NFM      -0.633100
      4 C2           2.5720    -0.1200    -0.1400 ca         1 NFM       0.715300
      5 N2           2.1310    -1.3670    -0.0490 nb         1 NFM      -0.754000
      6 C3           0.8250    -1.5010     0.1960 ca         1 NFM       0.478200
      7 N3          -0.1890     1.9560     0.3910 nv         1 NFM      -0.963500
      8 C4          -0.0500    -0.4540     0.3450 ca         1 NFM      -0.441900
      9 N4          -2.3560    -0.5320    -0.5520 ns         1 NFM      -0.574900
     10 C5           4.0330     0.0860    -0.3930 c3         1 NFM      -0.136400
     11 C6          -1.5080    -0.6910     0.6150 c3         1 NFM       0.160300
     12 C7          -3.0820     0.5510    -0.8280 c          1 NFM       0.669900
     13 H3           0.4550    -2.5190     0.2820 h4         1 NFM       0.011100
     14 HN3         -1.2000     1.9450     0.4000 hn         1 NFM       0.454300
     15 HN3A         0.2610     2.8380     0.2170 hn         1 NFM       0.454300
     16 HN4         -2.4070    -1.3030    -1.1990 hn         1 NFM       0.317500
     17 H5           4.5230     0.4560     0.5100 hc         1 NFM       0.058700
     18 H5A          4.5160    -0.8440    -0.6830 hc         1 NFM       0.058700
     19 H5B          4.1920     0.8310    -1.1720 hc         1 NFM       0.058700
     20 H6          -1.6380    -1.7110     0.9790 h1         1 NFM       0.061700
     21 H6A         -1.8770    -0.0330     1.4040 h1         1 NFM       0.061700
     22 H7          -3.6870     0.4290    -1.7360 h5         1 NFM       0.015200
@<TRIPOS>BOND
     1     1     2 ar  
     2     1     7 1   
     3     1     8 ar  
     4     2     4 ar  
     5     3    12 2   
     6     4     5 ar  
     7     4    10 1   
     8     5     6 ar  
     9     6     8 ar  
    10     6    13 1   
    11     7    14 1   
    12     7    15 1   
    13     8    11 1   
    14     9    11 1   
    15     9    12 1   
    16     9    16 1   
    17    10    17 1   
    18    10    18 1   
    19    10    19 1   
    20    11    20 1   
    21    11    21 1   
    22    12    22 1   
@<TRIPOS>SUBSTRUCTURE
     1 NFM         1 TEMP              0 ****  ****    0 ROOT
