@<TRIPOS>MOLECULE
NFM
   22    22     1     0     0
SMALL
No Charge or Current Charge


@<TRIPOS>ATOM
      1 C1           0.5150     0.8370     0.3280 ca         1 NFM       0.410900
      2 N1           1.8150     1.0230     0.0710 nb         1 NFM      -0.284000
      3 O1          -2.9180     1.6110    -0.3710 o          1 NFM      -0.633100
      4 C2           2.5510    -0.0890    -0.1330 ca         1 NFM       0.189300
      5 N2           2.0990    -1.3600    -0.0980 nb         1 NFM      -0.228000
      6 C3           0.7880    -1.5290     0.1630 ca         1 NFM       0.149900
      7 N3          -0.2000     1.9720     0.5090 nv         1 NFM      -1.073900
      8 C4          -0.0690    -0.4370     0.3880 ca         1 NFM      -0.311300
      9 N4          -2.3610    -0.5980    -0.5000 ns         1 NFM      -0.507900
     10 C5           4.0290     0.1090    -0.4180 c3         1 NFM      -0.136400
     11 C6          -1.5380    -0.6680     0.7050 c3         1 NFM       0.160300
     12 C7          -3.0060     0.5330    -0.9460 c          1 NFM       0.602900
     13 H3           0.4240    -2.5550     0.1950 h4         1 NFM       0.011100
     14 HN3         -1.2030     1.9110     0.3080 hn         1 NFM       0.509500
     15 HN3A         0.2390     2.8470     0.2350 hn         1 NFM       0.509500
     16 HN4         -2.4910    -1.4410    -1.0480 hn         1 NFM       0.317500
     17 H5           4.6020     0.1470     0.5150 hc         1 NFM       0.058700
     18 H5A          4.4340    -0.7090    -1.0260 hc         1 NFM       0.058700
     19 H5B          4.2110     1.0430    -0.9620 hc         1 NFM       0.058700
     20 H6          -1.6640    -1.6630     1.1520 h1         1 NFM       0.061700
     21 H6A         -1.8920     0.0640     1.4440 h1         1 NFM       0.061700
     22 H7          -3.5950     0.3600    -1.8670 h5         1 NFM       0.015200
@<TRIPOS>BOND
     1     1     2 ar  
     2     1     7 1   
     3     1     8 ar  
     4     2     4 ar  
     5     3    12 2   
     6     4     5 ar  
     7     4    10 1   
     8     5     6 ar  
     9     6     8 ar  
    10     6    13 1   
    11     7    14 1   
    12     7    15 1   
    13     8    11 1   
    14     9    11 1   
    15     9    12 1   
    16     9    16 1   
    17    10    17 1   
    18    10    18 1   
    19    10    19 1   
    20    11    20 1   
    21    11    21 1   
    22    12    22 1   
@<TRIPOS>SUBSTRUCTURE
     1 NFM         1 TEMP              0 ****  ****    0 ROOT
