@<TRIPOS>MOLECULE
NFN
   50    53     1     0     0
SMALL
bcc


@<TRIPOS>ATOM
      1 O1           3.3160     2.3240     0.3370 os         1 NFN      -0.310900
      2 C4           5.0410    -0.5440    -1.1230 ca         1 NFN      -0.071000
      3 C3           4.7950     0.7540    -0.7740 ca         1 NFN      -0.210000
      4 C10          4.1600    -1.5860    -0.7650 ca         1 NFN      -0.077000
      5 C2           3.6350     1.0760    -0.0330 ca         1 NFN       0.183100
      6 C9           2.9910    -1.2690    -0.0240 ca         1 NFN       0.027000
      7 C1           2.7510     0.0810     0.3320 ca         1 NFN      -0.186600
      8 C5           4.4190    -2.9290    -1.1240 ca         1 NFN      -0.114000
      9 C6           3.5560    -3.9270    -0.7670 ca         1 NFN      -0.138000
     10 C7           2.3940    -3.6170    -0.0300 ca         1 NFN      -0.111000
     11 C8           2.1170    -2.3280     0.3340 ca         1 NFN      -0.119000
     12 C14         -1.7610    -0.6420     1.2520 c          1 NFN       0.670500
     13 N2          -2.8290     0.0110     0.7120 nj         1 NFN      -0.374800
     14 C16         -3.7810    -0.5360    -0.2330 c5         1 NFN      -0.046300
     15 C21         -5.2320    -0.6190     0.2980 c          1 NFN       0.944600
     16 O4          -5.9960    -1.3210    -0.3920 o          1 NFN      -0.809800
     17 O5          -5.4970     0.0130     1.3300 o          1 NFN      -0.809800
     18 C15         -3.6740     0.3440    -1.5160 c5         1 NFN       0.115100
     19 C19         -4.6530     1.5150    -1.5120 c3         1 NFN      -0.077100
     20 C20         -3.8440    -0.4880    -2.7770 c3         1 NFN      -0.077100
     21 S1          -1.9480     1.0280    -1.4840 ss         1 NFN      -0.495200
     22 C13         -2.0460     1.1730     0.3190 cy         1 NFN       0.163800
     23 C12         -0.8680     0.6040     1.1430 cy         1 NFN       0.000700
     24 N1           0.3910     0.4250     0.5030 ns         1 NFN      -0.541900
     25 C11          1.5650     0.4530     1.1690 c          1 NFN       0.701700
     26 O2           1.6650     0.7460     2.3460 o          1 NFN      -0.588100
     27 C17          4.1780     3.4070    -0.0020 c3         1 NFN       0.147400
     28 C18          3.5780     4.6710     0.5620 c3         1 NFN      -0.095100
     29 H4           5.9330    -0.7830    -1.6900 ha         1 NFN       0.124000
     30 H3           5.4940     1.5230    -1.0720 ha         1 NFN       0.131000
     31 H5           5.3170    -3.1550    -1.6870 ha         1 NFN       0.121000
     32 H6           3.7600    -4.9530    -1.0450 ha         1 NFN       0.126000
     33 H7           1.7140    -4.4100     0.2530 ha         1 NFN       0.138000
     34 H8           1.2160    -2.1230     0.9000 ha         1 NFN       0.163000
     35 H16         -3.4500    -1.5490    -0.4860 h1         1 NFN       0.060700
     36 H191        -4.4700     2.1620    -2.3690 hc         1 NFN       0.044867
     37 H192        -5.6780     1.1490    -1.5880 hc         1 NFN       0.044867
     38 H193        -4.5790     2.1210    -0.6090 hc         1 NFN       0.044867
     39 H201        -3.0980    -1.2810    -2.8380 hc         1 NFN       0.044867
     40 H202        -4.8310    -0.9500    -2.7710 hc         1 NFN       0.044867
     41 H203        -3.7660     0.1290    -3.6730 hc         1 NFN       0.044867
     42 H13         -2.4370     2.1400     0.6330 h2         1 NFN       0.105700
     43 H12         -0.7340     1.1230     2.0920 h1         1 NFN       0.110700
     44 HN1          0.3910     0.1120    -0.4580 hn         1 NFN       0.335500
     45 H171         4.2800     3.4820    -1.0890 h1         1 NFN       0.029200
     46 H172         5.1760     3.2390     0.4170 h1         1 NFN       0.029200
     47 H181         4.2230     5.5140     0.3170 hc         1 NFN       0.048700
     48 H182         2.5930     4.8690     0.1390 hc         1 NFN       0.048700
     49 H183         3.4890     4.6210     1.6470 hc         1 NFN       0.048700
     50 O3          -1.5960    -1.7860     1.5870 o          1 NFN      -0.587500
@<TRIPOS>BOND
     1     1     5 1   
     2     1    27 1   
     3     2     3 ar  
     4     2     4 ar  
     5     2    29 1   
     6     3     5 ar  
     7     3    30 1   
     8     4     6 ar  
     9     4     8 ar  
    10     5     7 ar  
    11     6     7 ar  
    12     6    11 ar  
    13     7    25 1   
    14     8     9 ar  
    15     8    31 1   
    16     9    10 ar  
    17     9    32 1   
    18    10    11 ar  
    19    10    33 1   
    20    11    34 1   
    21    12    13 1   
    22    12    23 1   
    23    12    50 2   
    24    13    14 1   
    25    13    22 1   
    26    14    15 1   
    27    14    18 1   
    28    14    35 1   
    29    15    16 1   
    30    15    17 1   
    31    18    19 1   
    32    18    20 1   
    33    18    21 1   
    34    19    36 1   
    35    19    37 1   
    36    19    38 1   
    37    20    39 1   
    38    20    40 1   
    39    20    41 1   
    40    21    22 1   
    41    22    23 1   
    42    22    42 1   
    43    23    24 1   
    44    23    43 1   
    45    24    25 1   
    46    24    44 1   
    47    25    26 2   
    48    27    28 1   
    49    27    45 1   
    50    27    46 1   
    51    28    47 1   
    52    28    48 1   
    53    28    49 1   
@<TRIPOS>SUBSTRUCTURE
     1 NFN         1 TEMP              0 ****  ****    0 ROOT
