@<TRIPOS>MOLECULE
NFN
   50    53     1     0     0
SMALL
No Charge or Current Charge


@<TRIPOS>ATOM
      1 O1           3.8140     2.4040     0.8230 os         1 NFN      -0.334100
      2 C4           5.1260    -0.5150    -1.0540 ca         1 NFN      -0.053000
      3 C3           5.0770     0.7380    -0.4280 ca         1 NFN      -0.192000
      4 C10          4.0130    -1.3700    -1.0130 ca         1 NFN      -0.077000
      5 C2           3.9050     1.1550     0.2360 ca         1 NFN       0.183100
      6 C9           2.8310    -0.9710    -0.3420 ca         1 NFN       0.027000
      7 C1           2.7760     0.3100     0.2730 ca         1 NFN      -0.186600
      8 C5           4.0910    -2.6300    -1.6370 ca         1 NFN      -0.096000
      9 C6           3.0010    -3.5110    -1.5880 ca         1 NFN      -0.120000
     10 C7           1.8330    -3.1400    -0.9060 ca         1 NFN      -0.093000
     11 C8           1.7480    -1.8840    -0.2820 ca         1 NFN      -0.101000
     12 C14         -1.7560     0.1250     1.3650 c          1 NFN       0.528000
     13 N2          -2.8630     0.4110     0.5630 nj         1 NFN      -0.307800
     14 C16         -3.9190    -0.4920     0.0750 c5         1 NFN      -0.046300
     15 C21         -5.3480    -0.1790     0.6190 c          1 NFN       0.734000
     16 O4          -6.1490    -1.0990     0.7060 o          1 NFN      -0.704500
     17 O5          -5.6090     0.9410     1.0380 o          1 NFN      -0.704500
     18 C15         -3.8800    -0.4170    -1.4950 c5         1 NFN       0.163000
     19 C19         -4.8000     0.6580    -2.1350 c3         1 NFN      -0.077100
     20 C20         -4.1540    -1.7820    -2.1690 c3         1 NFN      -0.077100
     21 S1          -2.1160     0.0660    -1.8380 ss         1 NFN      -0.591000
     22 C13         -2.1040     1.2220    -0.3950 cy         1 NFN       0.211700
     23 C12         -0.9100     1.2110     0.6210 cy         1 NFN       0.000700
     24 N1           0.4210     0.8720     0.1480 ns         1 NFN      -0.474900
     25 C11          1.5360     0.8090     0.9520 c          1 NFN       0.634700
     26 O2           1.4980     1.1020     2.1400 o          1 NFN      -0.588100
     27 C17          4.9060     3.3380     0.8290 c3         1 NFN       0.170600
     28 C18          4.4320     4.5970     1.5720 c3         1 NFN      -0.095100
     29 H4           6.0350    -0.8220    -1.5670 ha         1 NFN       0.106000
     30 H3           5.9560     1.3730    -0.4800 ha         1 NFN       0.113000
     31 H5           4.9980    -2.9300    -2.1560 ha         1 NFN       0.103000
     32 H6           3.0650    -4.4850    -2.0690 ha         1 NFN       0.108000
     33 H7           0.9930    -3.8290    -0.8550 ha         1 NFN       0.120000
     34 H8           0.8350    -1.6480     0.2570 ha         1 NFN       0.145000
     35 H16         -3.6560    -1.5010     0.4140 h1         1 NFN       0.060700
     36 H191        -4.5990     0.7610    -3.2080 hc         1 NFN       0.044867
     37 H192        -5.8590     0.3980    -2.0270 hc         1 NFN       0.044867
     38 H193        -4.6520     1.6440    -1.6780 hc         1 NFN       0.044867
     39 H201        -3.4700    -2.5530    -1.7940 hc         1 NFN       0.044867
     40 H202        -5.1780    -2.1220    -1.9740 hc         1 NFN       0.044867
     41 H203        -4.0220    -1.7240    -3.2560 hc         1 NFN       0.044867
     42 H13         -2.5460     2.1920    -0.6520 h2         1 NFN       0.105700
     43 H12         -0.8530     2.1330     1.2090 h1         1 NFN       0.110700
     44 HN1          0.5550     0.5970    -0.8190 hn         1 NFN       0.335500
     45 H171         5.1950     3.6070    -0.1950 h1         1 NFN       0.029200
     46 H172         5.7780     2.9160     1.3450 h1         1 NFN       0.029200
     47 H181         5.2350     5.3430     1.6040 hc         1 NFN       0.048700
     48 H182         3.5680     5.0420     1.0650 hc         1 NFN       0.048700
     49 H183         4.1480     4.3530     2.6030 hc         1 NFN       0.048700
     50 O3          -1.5550    -0.6990     2.2480 o          1 NFN      -0.512000
@<TRIPOS>BOND
     1     1     5 1   
     2     1    27 1   
     3     2     3 ar  
     4     2     4 ar  
     5     2    29 1   
     6     3     5 ar  
     7     3    30 1   
     8     4     6 ar  
     9     4     8 ar  
    10     5     7 ar  
    11     6     7 ar  
    12     6    11 ar  
    13     7    25 1   
    14     8     9 ar  
    15     8    31 1   
    16     9    10 ar  
    17     9    32 1   
    18    10    11 ar  
    19    10    33 1   
    20    11    34 1   
    21    12    13 1   
    22    12    23 1   
    23    12    50 2   
    24    13    14 1   
    25    13    22 1   
    26    14    15 1   
    27    14    18 1   
    28    14    35 1   
    29    15    16 1   
    30    15    17 1   
    31    18    19 1   
    32    18    20 1   
    33    18    21 1   
    34    19    36 1   
    35    19    37 1   
    36    19    38 1   
    37    20    39 1   
    38    20    40 1   
    39    20    41 1   
    40    21    22 1   
    41    22    23 1   
    42    22    42 1   
    43    23    24 1   
    44    23    43 1   
    45    24    25 1   
    46    24    44 1   
    47    25    26 2   
    48    27    28 1   
    49    27    45 1   
    50    27    46 1   
    51    28    47 1   
    52    28    48 1   
    53    28    49 1   
@<TRIPOS>SUBSTRUCTURE
     1 NFN         1 TEMP              0 ****  ****    0 ROOT
