@<TRIPOS>MOLECULE
NFP
   40    41     1     0     0
SMALL
No Charge or Current Charge


@<TRIPOS>ATOM
      1 C1           1.6930    -1.7060     0.1670 ce         1 NFP      -0.392100
      2 C2           0.4530    -1.2720    -0.1690 c2         1 NFP      -0.052200
      3 C3          -0.8270    -1.5490     0.6060 c3         1 NFP       0.175700
      4 N1          -0.5760    -1.4350     2.0560 n8         1 NFP      -0.995200
      5 C4          -1.9860    -0.6140     0.1800 c3         1 NFP      -0.113400
      6 C5          -3.3560    -0.9490     0.8180 c3         1 NFP      -0.031100
      7 C6          -4.4680    -0.0620     0.2730 ca         1 NFP      -0.084300
      8 C7          -5.2530    -0.4920    -0.8150 ca         1 NFP      -0.106500
      9 C8          -6.2760     0.3290    -1.3200 ca         1 NFP      -0.107500
     10 C9          -6.5200     1.5860    -0.7410 ca         1 NFP      -0.108000
     11 C10         -5.7390     2.0210     0.3420 ca         1 NFP      -0.107500
     12 C11         -4.7160     1.2000     0.8480 ca         1 NFP      -0.106500
     13 C12          4.1370     2.9560     0.6160 ca         1 NFP      -0.059000
     14 C13          4.6590     1.8470     1.3020 ca         1 NFP      -0.130000
     15 C14          4.3600     0.5430     0.8700 ca         1 NFP      -0.016500
     16 C15          3.5350     0.3450    -0.2570 ca         1 NFP      -0.259500
     17 S1           3.1400    -1.3290    -0.8050 sy         1 NFP       1.003600
     18 O1           4.2130    -2.2280    -0.3630 o          1 NFP      -0.530500
     19 O2           2.7270    -1.2610    -2.2130 o          1 NFP      -0.530500
     20 C16          3.0080     1.4600    -0.9420 ca         1 NFP      -0.016500
     21 C17          3.3110     2.7610    -0.5040 ca         1 NFP      -0.130000
     22 H1           1.9280    -2.3020     1.0470 h4         1 NFP       0.236000
     23 H3           0.3060    -0.6760    -1.0730 ha         1 NFP       0.195000
     24 H5          -1.1340    -2.5840     0.3930 h1         1 NFP       0.076700
     25 H6          -0.2690    -0.4780     2.2600 hn         1 NFP       0.402000
     26 H7          -1.7230     0.4270     0.4080 hc         1 NFP       0.053700
     27 H8          -2.0980    -0.6740    -0.9100 hc         1 NFP       0.053700
     28 H9          -3.5920    -2.0040     0.6320 hc         1 NFP       0.045700
     29 H10         -3.2970    -0.8360     1.9070 hc         1 NFP       0.045700
     30 H11         -5.0700    -1.4630    -1.2710 ha         1 NFP       0.109500
     31 H12         -6.8790    -0.0090    -2.1610 ha         1 NFP       0.113500
     32 H13         -7.3120     2.2210    -1.1330 ha         1 NFP       0.114000
     33 H14         -5.9260     2.9950     0.7910 ha         1 NFP       0.113500
     34 H15         -4.1150     1.5450     1.6850 ha         1 NFP       0.109500
     35 H17          5.2960     1.9970     2.1710 ha         1 NFP       0.118500
     36 H18          4.7690    -0.3080     1.4140 ha         1 NFP       0.135500
     37 H19          2.3640     1.3260    -1.8100 ha         1 NFP       0.135500
     38 H20          2.9040     3.6200    -1.0340 ha         1 NFP       0.118500
     39 H21         -1.4680    -1.5170     2.5550 hn         1 NFP       0.402000
     40 H16          4.3690     3.9640     0.9530 ha         1 NFP       0.116000
@<TRIPOS>BOND
     1     1     2 2   
     2     1    17 1   
     3     1    22 1   
     4     2     3 1   
     5     2    23 1   
     6     3     4 1   
     7     3     5 1   
     8     3    24 1   
     9     4    25 1   
    10     4    39 1   
    11     5     6 1   
    12     5    26 1   
    13     5    27 1   
    14     6     7 1   
    15     6    28 1   
    16     6    29 1   
    17     7     8 ar  
    18     7    12 ar  
    19     8     9 ar  
    20     8    30 1   
    21     9    10 ar  
    22     9    31 1   
    23    10    11 ar  
    24    10    32 1   
    25    11    12 ar  
    26    11    33 1   
    27    12    34 1   
    28    13    14 ar  
    29    13    21 ar  
    30    13    40 1   
    31    14    15 ar  
    32    14    35 1   
    33    15    16 ar  
    34    15    36 1   
    35    16    17 1   
    36    16    20 ar  
    37    17    18 2   
    38    17    19 2   
    39    20    21 ar  
    40    20    37 1   
    41    21    38 1   
@<TRIPOS>SUBSTRUCTURE
     1 NFP         1 TEMP              0 ****  ****    0 ROOT
