@<TRIPOS>MOLECULE
NFP
   40    41     1     0     0
SMALL
abcg2


@<TRIPOS>ATOM
      1 C1           1.5270    -1.4150     0.3700 ce         1 NFP      -0.392100
      2 C2           0.3310    -1.5700    -0.1820 c2         1 NFP      -0.052200
      3 C3          -0.9290    -1.8090     0.5900 c3         1 NFP       0.175700
      4 N1          -0.6830    -1.8190     2.0170 n8         1 NFP      -0.995200
      5 C4          -1.9960    -0.8080     0.1140 c3         1 NFP      -0.113400
      6 C5          -3.3650    -1.0600     0.7470 c3         1 NFP      -0.031100
      7 C6          -4.3960    -0.0860     0.2490 ca         1 NFP      -0.084300
      8 C7          -5.2320    -0.4080    -0.8170 ca         1 NFP      -0.106500
      9 C8          -6.1580     0.5080    -1.2990 ca         1 NFP      -0.107500
     10 C9          -6.2610     1.7660    -0.7200 ca         1 NFP      -0.108000
     11 C10         -5.4310     2.0990     0.3430 ca         1 NFP      -0.107500
     12 C11         -4.5080     1.1800     0.8220 ca         1 NFP      -0.106500
     13 C12          4.1770     3.0740     0.4930 ca         1 NFP      -0.059000
     14 C13          4.7480     1.9960     1.1560 ca         1 NFP      -0.130000
     15 C14          4.3850     0.6990     0.8200 ca         1 NFP      -0.016500
     16 C15          3.4450     0.5040    -0.1830 ca         1 NFP      -0.259500
     17 S1           2.9570    -1.1480    -0.6110 sy         1 NFP       1.003600
     18 O1           3.9970    -2.0630    -0.1460 o          1 NFP      -0.530500
     19 O2           2.5820    -1.1600    -2.0230 o          1 NFP      -0.530500
     20 C16          2.8670     1.5730    -0.8560 ca         1 NFP      -0.016500
     21 C17          3.2390     2.8620    -0.5120 ca         1 NFP      -0.130000
     22 H1           1.7090    -1.4610     1.4370 h4         1 NFP       0.236000
     23 H3           0.2200    -1.5180    -1.2610 ha         1 NFP       0.195000
     24 H5          -1.2740    -2.8120     0.3070 h1         1 NFP       0.076700
     25 H6          -0.5680    -0.8720     2.3590 hn         1 NFP       0.402000
     26 H7          -1.6640     0.2100     0.3450 hc         1 NFP       0.053700
     27 H8          -2.0880    -0.8670    -0.9740 hc         1 NFP       0.053700
     28 H9          -3.6820    -2.0830     0.5240 hc         1 NFP       0.045700
     29 H10         -3.2860    -0.9830     1.8340 hc         1 NFP       0.045700
     30 H11         -5.1630    -1.3900    -1.2720 ha         1 NFP       0.109500
     31 H12         -6.8020     0.2370    -2.1260 ha         1 NFP       0.113500
     32 H13         -6.9830     2.4810    -1.0940 ha         1 NFP       0.114000
     33 H14         -5.5050     3.0770     0.8030 ha         1 NFP       0.113500
     34 H15         -3.8690     1.4480     1.6550 ha         1 NFP       0.109500
     35 H17          5.4790     2.1600     1.9350 ha         1 NFP       0.118500
     36 H18          4.8320    -0.1400     1.3340 ha         1 NFP       0.135500
     37 H19          2.1380     1.4110    -1.6390 ha         1 NFP       0.135500
     38 H20          2.8000     3.7030    -1.0310 ha         1 NFP       0.118500
     39 H21         -1.4810    -2.2030     2.5060 hn         1 NFP       0.402000
     40 H16          4.4630     4.0830     0.7580 ha         1 NFP       0.116000
@<TRIPOS>BOND
     1     1     2 2   
     2     1    17 1   
     3     1    22 1   
     4     2     3 1   
     5     2    23 1   
     6     3     4 1   
     7     3     5 1   
     8     3    24 1   
     9     4    25 1   
    10     4    39 1   
    11     5     6 1   
    12     5    26 1   
    13     5    27 1   
    14     6     7 1   
    15     6    28 1   
    16     6    29 1   
    17     7     8 ar  
    18     7    12 ar  
    19     8     9 ar  
    20     8    30 1   
    21     9    10 ar  
    22     9    31 1   
    23    10    11 ar  
    24    10    32 1   
    25    11    12 ar  
    26    11    33 1   
    27    12    34 1   
    28    13    14 ar  
    29    13    21 ar  
    30    13    40 1   
    31    14    15 ar  
    32    14    35 1   
    33    15    16 ar  
    34    15    36 1   
    35    16    17 1   
    36    16    20 ar  
    37    17    18 2   
    38    17    19 2   
    39    20    21 ar  
    40    20    37 1   
    41    21    38 1   
@<TRIPOS>SUBSTRUCTURE
     1 NFP         1 TEMP              0 ****  ****    0 ROOT
