@<TRIPOS>MOLECULE
NFQ
   17    16     1     0     0
SMALL
No Charge or Current Charge


@<TRIPOS>ATOM
      1 C            1.5080    -1.0180     0.2010 c          1 NFQ       0.711000
      2 N            0.3520     1.1260    -0.6670 nu         1 NFQ      -0.832400
      3 O1           1.9360    -1.3860     1.2890 o          1 NFQ      -0.764000
      4 O2           2.0680    -1.3020    -0.8530 o          1 NFQ      -0.764000
      5 CA           0.2050    -0.1140     0.1640 c3         1 NFQ       0.101500
      6 CB          -1.0300    -0.9290    -0.3080 c3         1 NFQ      -0.196400
      7 CF           1.2520     2.1290    -0.4190 c2         1 NFQ       0.646100
      8 NF           1.6930     2.3250     0.7600 n2         1 NFQ      -0.882100
      9 CG          -2.3330    -0.2600     0.1560 c          1 NFQ       0.712000
     10 OD1         -2.7360    -0.5050     1.2830 o          1 NFQ      -0.769500
     11 OD2         -2.9180     0.4830    -0.6180 o          1 NFQ      -0.769500
     12 HN           0.0850     1.0490    -1.6440 hn         1 NFQ       0.460000
     13 HA           0.0250     0.1750     1.2100 h1         1 NFQ       0.083700
     14 HB          -0.9800    -1.0000    -1.4020 hc         1 NFQ       0.023200
     15 HBA         -0.9290    -1.8990     0.1940 hc         1 NFQ       0.023200
     16 HF           1.4940     2.7570    -1.2740 h5         1 NFQ      -0.096200
     17 HNF          2.3210     3.1370     0.7330 hn         1 NFQ       0.313400
@<TRIPOS>BOND
     1     1     3 1   
     2     1     4 1   
     3     1     5 1   
     4     2     5 1   
     5     2     7 1   
     6     2    12 1   
     7     5     6 1   
     8     5    13 1   
     9     6     9 1   
    10     6    14 1   
    11     6    15 1   
    12     7     8 2   
    13     7    16 1   
    14     8    17 1   
    15     9    10 1   
    16     9    11 1   
@<TRIPOS>SUBSTRUCTURE
     1 NFQ         1 TEMP              0 ****  ****    0 ROOT
