@<TRIPOS>MOLECULE
NFQ
   17    16     1     0     0
SMALL
bcc


@<TRIPOS>ATOM
      1 C            1.5220    -0.9980     0.0770 c          1 NFQ       0.921600
      2 N            0.3300     1.0900    -0.6060 nu         1 NFQ      -0.777200
      3 O1           1.6670    -1.8340     0.9940 o          1 NFQ      -0.869300
      4 O2           2.2560    -0.8440    -0.9160 o          1 NFQ      -0.869300
      5 CA           0.2580    -0.1110     0.1890 c3         1 NFQ       0.101500
      6 CB          -0.9780    -0.9070    -0.2170 c3         1 NFQ      -0.196400
      7 CF           1.1710     2.0970    -0.3040 c2         1 NFQ       0.646100
      8 NF           1.8040     2.1870     0.8030 n2         1 NFQ      -0.882100
      9 CG          -2.3020    -0.1640     0.0360 c          1 NFQ       0.922600
     10 OD1         -2.4350     0.3760     1.1530 o          1 NFQ      -0.874800
     11 OD2         -3.1500    -0.1830    -0.8800 o          1 NFQ      -0.874800
     12 HN           0.0610     1.0140    -1.5730 hn         1 NFQ       0.404800
     13 HA           0.1400     0.1850     1.2330 h1         1 NFQ       0.083700
     14 HB          -0.9000    -1.2050    -1.2680 hc         1 NFQ       0.023200
     15 HBA         -0.9860    -1.8330     0.3670 hc         1 NFQ       0.023200
     16 HF           1.2250     2.8470    -1.0970 h5         1 NFQ      -0.096200
     17 HNF          2.3300     3.0520     0.8140 hn         1 NFQ       0.313400
@<TRIPOS>BOND
     1     1     3 1   
     2     1     4 1   
     3     1     5 1   
     4     2     5 1   
     5     2     7 1   
     6     2    12 1   
     7     5     6 1   
     8     5    13 1   
     9     6     9 1   
    10     6    14 1   
    11     6    15 1   
    12     7     8 2   
    13     7    16 1   
    14     8    17 1   
    15     9    10 1   
    16     9    11 1   
@<TRIPOS>SUBSTRUCTURE
     1 NFQ         1 TEMP              0 ****  ****    0 ROOT
