@<TRIPOS>MOLECULE
NFT
   62    63     1     0     0
SMALL
abcg2


@<TRIPOS>ATOM
      1 C46          4.9800    -4.8230     1.7720 cp         1 NFT       0.018000
      2 C08          3.3170    -3.2620     2.7890 ca         1 NFT      -0.101000
      3 C09          3.6190    -4.2620     1.8640 cp         1 NFT      -0.035000
      4 C10          2.6030    -4.7180     1.0260 ca         1 NFT      -0.101000
      5 C11          1.3230    -4.1940     1.1190 ca         1 NFT      -0.083500
      6 C07          2.0390    -2.7370     2.8780 ca         1 NFT      -0.083500
      7 C06          1.0250    -3.2040     2.0450 ca         1 NFT      -0.103300
      8 C15         -0.3810    -2.6540     2.1360 c3         1 NFT       0.168800
      9 C16         -1.1150    -3.3400     3.2820 c3         1 NFT       0.301000
     10 F35         -1.1560    -4.6640     3.1040 f          1 NFT      -0.110333
     11 F36         -0.5470    -3.1170     4.4700 f          1 NFT      -0.110333
     12 F37         -2.3860    -2.9180     3.3750 f          1 NFT      -0.110333
     13 N26          1.8670     1.1760     2.0080 ns         1 NFT      -0.502900
     14 C41          2.4110     2.3520     2.6490 c3         1 NFT       0.099000
     15 N24         -0.3760    -1.2290     2.3760 n7         1 NFT      -0.867400
     16 C17          0.1980    -0.4280     1.2950 c3         1 NFT       0.097500
     17 C18         -0.7400    -0.2670     0.0960 c3         1 NFT      -0.095400
     18 C19         -0.1610     0.3970    -1.1610 c3         1 NFT      -0.054700
     19 C20          1.1240    -0.2800    -1.6320 c3         1 NFT      -0.090600
     20 C21          0.0390     1.9050    -1.0340 c3         1 NFT      -0.090600
     21 C22          0.5560     0.9020     1.9420 c          1 NFT       0.616100
     22 O23         -0.3130     1.6410     2.3830 o          1 NFT      -0.603100
     23 C47          5.7450    -5.0290     2.9200 ca         1 NFT      -0.122500
     24 C48          7.0170    -5.5730     2.8420 ca         1 NFT      -0.008500
     25 C50          7.5340    -5.9100     1.6010 ca         1 NFT      -0.264500
     26 C51          6.7950    -5.7120     0.4420 ca         1 NFT      -0.008500
     27 C52          5.5260    -5.1720     0.5340 ca         1 NFT      -0.122500
     28 S60          9.1490    -6.6220     1.4770 sy         1 NFT       1.134600
     29 N63         10.0440    -5.3630     0.8980 n8         1 NFT      -1.019100
     30 O61          9.5630    -7.0080     2.8190 o          1 NFT      -0.545500
     31 O62          9.1390    -7.6270     0.4240 o          1 NFT      -0.545500
     32 C44          2.6760     2.1390     4.1350 c3         1 NFT       0.125800
     33 N45          3.2470     3.3460     4.7090 n8         1 NFT      -1.002200
     34 H08          4.0920    -2.8680     3.4340 ha         1 NFT       0.121000
     35 H10          2.8000    -5.5010     0.3050 ha         1 NFT       0.121000
     36 H11          0.5500    -4.5640     0.4560 ha         1 NFT       0.128500
     37 H07          1.8390    -1.9410     3.5840 ha         1 NFT       0.128500
     38 H15         -0.9200    -2.9520     1.2220 h1         1 NFT       0.057700
     39 HN26         2.5200     0.4930     1.6600 hn         1 NFT       0.313500
     40 H411         1.7190     3.1830     2.5040 h1         1 NFT       0.061700
     41 H412         3.3420     2.6150     2.1450 h1         1 NFT       0.061700
     42 HN24        -1.3120    -0.8890     2.5660 hn         1 NFT       0.450000
     43 H17          1.1100    -0.9330     0.9670 h1         1 NFT       0.068700
     44 H181        -1.6350     0.2740     0.4170 hc         1 NFT       0.050200
     45 H182        -1.0760    -1.2680    -0.1920 hc         1 NFT       0.050200
     46 H19         -0.9150     0.2420    -1.9390 hc         1 NFT       0.047700
     47 H201         1.4110     0.0830    -2.6200 hc         1 NFT       0.035533
     48 H202         1.0100    -1.3640    -1.6980 hc         1 NFT       0.035533
     49 H203         1.9600    -0.0710    -0.9600 hc         1 NFT       0.035533
     50 H211         0.8620     2.1580    -0.3650 hc         1 NFT       0.035533
     51 H212         0.2770     2.3380    -2.0080 hc         1 NFT       0.035533
     52 H213        -0.8590     2.4020    -0.6640 hc         1 NFT       0.035533
     53 H47          5.3390    -4.7890     3.8940 ha         1 NFT       0.121500
     54 H48          7.5840    -5.7390     3.7480 ha         1 NFT       0.137500
     55 H51          7.1980    -5.9660    -0.5290 ha         1 NFT       0.137500
     56 H52          4.9610    -5.0040    -0.3740 ha         1 NFT       0.121500
     57 H631        10.4350    -4.7770     1.6270 hn         1 NFT       0.479500
     58 H632        10.7640    -5.6750     0.2550 hn         1 NFT       0.479500
     59 H441         3.3970     1.3260     4.2500 h1         1 NFT       0.036700
     60 H442         1.7470     1.8080     4.6190 h1         1 NFT       0.036700
     61 H451         3.4950     3.1780     5.6750 hn         1 NFT       0.397500
     62 H452         2.5450     4.0760     4.7300 hn         1 NFT       0.397500
@<TRIPOS>BOND
     1     1     3 1   
     2     1    23 ar  
     3     1    27 ar  
     4     2     3 ar  
     5     2     6 ar  
     6     2    34 1   
     7     3     4 ar  
     8     4     5 ar  
     9     4    35 1   
    10     5     7 ar  
    11     5    36 1   
    12     6     7 ar  
    13     6    37 1   
    14     7     8 1   
    15     8     9 1   
    16     8    15 1   
    17     8    38 1   
    18     9    10 1   
    19     9    11 1   
    20     9    12 1   
    21    13    14 1   
    22    13    21 1   
    23    13    39 1   
    24    14    32 1   
    25    14    40 1   
    26    14    41 1   
    27    15    16 1   
    28    15    42 1   
    29    16    17 1   
    30    16    21 1   
    31    16    43 1   
    32    17    18 1   
    33    17    44 1   
    34    17    45 1   
    35    18    19 1   
    36    18    20 1   
    37    18    46 1   
    38    19    47 1   
    39    19    48 1   
    40    19    49 1   
    41    20    50 1   
    42    20    51 1   
    43    20    52 1   
    44    21    22 2   
    45    23    24 ar  
    46    23    53 1   
    47    24    25 ar  
    48    24    54 1   
    49    25    26 ar  
    50    25    28 1   
    51    26    27 ar  
    52    26    55 1   
    53    27    56 1   
    54    28    29 1   
    55    28    30 2   
    56    28    31 2   
    57    29    57 1   
    58    29    58 1   
    59    32    33 1   
    60    32    59 1   
    61    32    60 1   
    62    33    61 1   
    63    33    62 1   
@<TRIPOS>SUBSTRUCTURE
     1 NFT         1 TEMP              0 ****  ****    0 ROOT
