@<TRIPOS>MOLECULE
NFT
   62    63     1     0     0
SMALL
No Charge or Current Charge


@<TRIPOS>ATOM
      1 C46          4.8630    -4.8610     1.5730 cp         1 NFT       0.018000
      2 C08          3.1870    -3.5340     2.9450 ca         1 NFT      -0.101000
      3 C09          3.4880    -4.3090     1.7980 cp         1 NFT      -0.035000
      4 C10          2.4440    -4.5400     0.8680 ca         1 NFT      -0.101000
      5 C11          1.1550    -4.0210     1.0760 ca         1 NFT      -0.083500
      6 C07          1.9000    -3.0110     3.1530 ca         1 NFT      -0.083500
      7 C06          0.8700    -3.2530     2.2220 ca         1 NFT      -0.103300
      8 C15         -0.5330    -2.6640     2.4190 c3         1 NFT       0.168800
      9 C16         -1.3100    -3.3460     3.5980 c3         1 NFT       0.301000
     10 F35         -1.3550    -4.6890     3.4330 f          1 NFT      -0.110333
     11 F36         -0.7360    -3.0960     4.7990 f          1 NFT      -0.110333
     12 F37         -2.5880    -2.9000     3.6520 f          1 NFT      -0.110333
     13 N26          1.9160     1.3310     2.3280 ns         1 NFT      -0.502900
     14 C41          2.4250     2.6150     2.8220 c3         1 NFT       0.099000
     15 N24         -0.4640    -1.1760     2.5650 n7         1 NFT      -0.867400
     16 C17          0.2950    -0.3880     1.5310 c3         1 NFT       0.097500
     17 C18         -0.4450    -0.4150     0.1550 c3         1 NFT      -0.095400
     18 C19          0.3910    -0.0360    -1.1040 c3         1 NFT      -0.054700
     19 C20          1.5780    -0.9980    -1.3480 c3         1 NFT      -0.090600
     20 C21          0.8410     1.4430    -1.1470 c3         1 NFT      -0.090600
     21 C22          0.5930     1.0740     2.0200 c          1 NFT       0.616100
     22 O23         -0.2730     1.9350     2.1310 o          1 NFT      -0.603100
     23 C47          5.6640    -5.2980     2.6570 ca         1 NFT      -0.122500
     24 C48          6.9540    -5.8170     2.4500 ca         1 NFT      -0.008500
     25 C50          7.4750    -5.9100     1.1450 ca         1 NFT      -0.264500
     26 C51          6.6970    -5.4770     0.0530 ca         1 NFT      -0.008500
     27 C52          5.4080    -4.9610     0.2680 ca         1 NFT      -0.122500
     28 S60          9.1230    -6.5720     0.8740 sy         1 NFT       1.134600
     29 N63         10.0720    -5.2500     0.9600 n8         1 NFT      -1.019100
     30 O61          9.5580    -7.3770     2.0130 o          1 NFT      -0.545500
     31 O62          9.2890    -7.0200    -0.5060 o          1 NFT      -0.545500
     32 C44          2.0420     2.8850     4.3000 c3         1 NFT       0.125800
     33 N45          2.5970     4.1600     4.8110 n8         1 NFT      -1.002200
     34 H08          3.9640    -3.3170     3.6730 ha         1 NFT       0.121000
     35 H10          2.6290    -5.1390    -0.0200 ha         1 NFT       0.121000
     36 H11          0.3770    -4.2150     0.3410 ha         1 NFT       0.128500
     37 H07          1.7060    -2.4030     4.0340 ha         1 NFT       0.128500
     38 H15         -1.1150    -2.9040     1.5200 h1         1 NFT       0.057700
     39 HN26         2.5640     0.5590     2.2300 hn         1 NFT       0.313500
     40 H411         2.0340     3.4200     2.1870 h1         1 NFT       0.061700
     41 H412         3.5190     2.6130     2.7270 h1         1 NFT       0.061700
     42 HN24        -1.4170    -0.7950     2.6450 hn         1 NFT       0.450000
     43 H17          1.2770    -0.8550     1.3870 h1         1 NFT       0.068700
     44 H181        -1.3270     0.2350     0.2100 hc         1 NFT       0.050200
     45 H182        -0.8360    -1.4210    -0.0280 hc         1 NFT       0.050200
     46 H19         -0.2870    -0.1660    -1.9570 hc         1 NFT       0.047700
     47 H201         2.0350    -0.8020    -2.3260 hc         1 NFT       0.035533
     48 H202         1.2420    -2.0420    -1.3370 hc         1 NFT       0.035533
     49 H203         2.3550    -0.8780    -0.5840 hc         1 NFT       0.035533
     50 H211         1.6510     1.6370    -0.4350 hc         1 NFT       0.035533
     51 H212         1.2130     1.6980    -2.1460 hc         1 NFT       0.035533
     52 H213         0.0040     2.1140    -0.9190 hc         1 NFT       0.035533
     53 H47          5.2770    -5.2480     3.6710 ha         1 NFT       0.121500
     54 H48          7.5410    -6.1450     3.3060 ha         1 NFT       0.137500
     55 H51          7.0870    -5.5350    -0.9620 ha         1 NFT       0.137500
     56 H52          4.8310    -4.6220    -0.5880 ha         1 NFT       0.121500
     57 H631        10.7540    -5.5640     1.6460 hn         1 NFT       0.479500
     58 H632        10.5890    -5.3440     0.0890 hn         1 NFT       0.479500
     59 H441         2.4210     2.0640     4.9250 h1         1 NFT       0.036700
     60 H442         0.9480     2.9120     4.3990 h1         1 NFT       0.036700
     61 H451         2.2830     4.2980     5.7810 hn         1 NFT       0.397500
     62 H452         2.1620     4.9440     4.3080 hn         1 NFT       0.397500
@<TRIPOS>BOND
     1     1     3 1   
     2     1    23 ar  
     3     1    27 ar  
     4     2     3 ar  
     5     2     6 ar  
     6     2    34 1   
     7     3     4 ar  
     8     4     5 ar  
     9     4    35 1   
    10     5     7 ar  
    11     5    36 1   
    12     6     7 ar  
    13     6    37 1   
    14     7     8 1   
    15     8     9 1   
    16     8    15 1   
    17     8    38 1   
    18     9    10 1   
    19     9    11 1   
    20     9    12 1   
    21    13    14 1   
    22    13    21 1   
    23    13    39 1   
    24    14    32 1   
    25    14    40 1   
    26    14    41 1   
    27    15    16 1   
    28    15    42 1   
    29    16    17 1   
    30    16    21 1   
    31    16    43 1   
    32    17    18 1   
    33    17    44 1   
    34    17    45 1   
    35    18    19 1   
    36    18    20 1   
    37    18    46 1   
    38    19    47 1   
    39    19    48 1   
    40    19    49 1   
    41    20    50 1   
    42    20    51 1   
    43    20    52 1   
    44    21    22 2   
    45    23    24 ar  
    46    23    53 1   
    47    24    25 ar  
    48    24    54 1   
    49    25    26 ar  
    50    25    28 1   
    51    26    27 ar  
    52    26    55 1   
    53    27    56 1   
    54    28    29 1   
    55    28    30 2   
    56    28    31 2   
    57    29    57 1   
    58    29    58 1   
    59    32    33 1   
    60    32    59 1   
    61    32    60 1   
    62    33    61 1   
    63    33    62 1   
@<TRIPOS>SUBSTRUCTURE
     1 NFT         1 TEMP              0 ****  ****    0 ROOT
