@<TRIPOS>MOLECULE
NFW
   63    66     1     0     0
SMALL
abcg2


@<TRIPOS>ATOM
      1 C1          -5.8380    -3.0610     2.2320 ca         1 NFW      -0.134000
      2 C2          -4.9530    -4.0910     1.9480 ca         1 NFW      -0.111000
      3 C3          -3.9530     4.3370     1.1240 cc         1 NFW      -0.201000
      4 C4          -5.7520    -1.8760     1.5230 ca         1 NFW      -0.071000
      5 C5          -3.9900    -3.9120     0.9700 ca         1 NFW      -0.124000
      6 C6           1.7970    -2.3670    -1.0690 ca         1 NFW      -0.127000
      7 C7           3.0930    -1.9850    -0.7630 ca         1 NFW      -0.150000
      8 C8          -3.1390     3.3160     0.5440 cc         1 NFW      -0.152000
      9 C9          -5.1730     4.2090     0.5500 cd         1 NFW       0.081900
     10 C10         -4.7700    -1.6810     0.5500 ca         1 NFW      -0.108600
     11 C11          1.0300    -0.1050    -0.8170 ca         1 NFW      -0.090600
     12 C12         -3.8660    -2.7130     0.2670 ca         1 NFW      -0.042300
     13 C13          0.7550    -1.4430    -1.0980 ca         1 NFW      -0.109300
     14 C14          3.3700    -0.6540    -0.4850 ca         1 NFW       0.069100
     15 C15          2.3330     0.2800    -0.5170 ca         1 NFW       0.059100
     16 C16         -3.9300     2.6460    -0.3310 cd         1 NFW       0.119300
     17 C19         -4.8330    -0.3670    -0.1730 c          1 NFW       0.591700
     18 C21          8.7070     0.8460     0.9660 c          1 NFW       0.717000
     19 C22          3.9320     1.9700    -0.4080 c6         1 NFW       0.114600
     20 C23          4.8280     1.0050     0.3410 c6         1 NFW       0.127300
     21 C24         -2.7800    -2.6310    -0.7770 c3         1 NFW       0.189100
     22 C25         -0.6300    -1.9180    -1.4480 c3         1 NFW       0.223100
     23 C26         -3.6530     1.4800    -1.2180 c3         1 NFW       0.064700
     24 C27         -1.0480    -2.4030     0.8940 c3         1 NFW       0.145100
     25 C29          6.2930     1.3690     0.2150 c3         1 NFW      -0.049400
     26 N30         -3.6780     0.2030    -0.5290 ns         1 NFW      -0.470900
     27 N31         -1.5980    -1.8850    -0.3450 n3         1 NFW      -0.690600
     28 O32         -0.4220     1.3770     0.2770 o          1 NFW      -0.723500
     29 O33          9.4780     0.1080     1.6150 o          1 NFW      -0.751000
     30 O34         -5.9220     0.1560    -0.3900 o          1 NFW      -0.648100
     31 O35         -0.4390     1.3170    -1.9630 o          1 NFW      -0.723500
     32 O36          9.0300     1.8440     0.2930 o          1 NFW      -0.751000
     33 O37         -5.1690     3.1890    -0.3310 os         1 NFW      -0.238000
     34 O38          2.5710     1.5970    -0.2820 os         1 NFW      -0.306100
     35 O39          4.6450    -0.3060    -0.1930 os         1 NFW      -0.337100
     36 H1          -6.5980    -3.1820     2.9930 ha         1 NFW       0.100000
     37 H2          -5.0150    -5.0310     2.4820 ha         1 NFW       0.098000
     38 H4          -6.4580    -1.0830     1.7280 ha         1 NFW       0.129000
     39 H5          -3.3050    -4.7200     0.7420 ha         1 NFW       0.106000
     40 H3          -3.6670     5.0690     1.8620 ha         1 NFW       0.122000
     41 H8          -2.1040     3.0870     0.7370 ha         1 NFW       0.194000
     42 H9          -6.0980     4.7520     0.6600 h4         1 NFW       0.025100
     43 H6           1.5910    -3.4090    -1.2820 ha         1 NFW       0.082000
     44 H7           3.8950    -2.7120    -0.7420 ha         1 NFW       0.108000
     45 H241        -2.5040    -3.6590    -1.0560 h1         1 NFW       0.035700
     46 H242        -3.1580    -2.1580    -1.6880 h1         1 NFW       0.035700
     47 H251        -1.0410    -1.3160    -2.2630 h1         1 NFW       0.033700
     48 H252        -0.5380    -2.9470    -1.8320 h1         1 NFW       0.033700
     49 H261        -4.3600     1.4680    -2.0500 h1         1 NFW       0.092200
     50 H262        -2.6530     1.5890    -1.6340 h1         1 NFW       0.092200
     51 H30         -2.7890    -0.2460    -0.3060 hn         1 NFW       0.385500
     52 H281         7.1160    -0.5720     0.6880 hc         1 NFW       0.025200
     53 H282         6.9030     0.4630     2.0690 hc         1 NFW       0.025200
     54 H23          4.5320     0.9990     1.4000 h1         1 NFW       0.049700
     55 H221         4.0240     2.9730     0.0080 h1         1 NFW       0.054200
     56 H222         4.2210     2.0080    -1.4660 h1         1 NFW       0.054200
     57 H291         6.5740     1.3630    -0.8420 hc         1 NFW       0.047700
     58 H292         6.4070     2.4020     0.5550 hc         1 NFW       0.047700
     59 H271        -0.7160    -3.4490     0.8190 h1         1 NFW       0.035033
     60 H272        -0.1980    -1.7990     1.2020 h1         1 NFW       0.035033
     61 H273        -1.7920    -2.3450     1.6860 h1         1 NFW       0.035033
     62 C28          7.2160     0.4660     1.0190 c3         1 NFW      -0.203400
     63 C20         -0.0500     0.9640    -0.8330 c          1 NFW       0.733600
@<TRIPOS>BOND
     1     1     2 ar  
     2     1     4 ar  
     3     1    36 1   
     4     2     5 ar  
     5     2    37 1   
     6     3     8 1   
     7     3     9 2   
     8     3    40 1   
     9     4    10 ar  
    10     4    38 1   
    11     5    12 ar  
    12     5    39 1   
    13     6     7 ar  
    14     6    13 ar  
    15     6    43 1   
    16     7    14 ar  
    17     7    44 1   
    18     8    16 2   
    19     8    41 1   
    20     9    33 1   
    21     9    42 1   
    22    10    12 ar  
    23    10    17 1   
    24    11    13 ar  
    25    11    15 ar  
    26    11    63 1   
    27    12    21 1   
    28    13    22 1   
    29    14    15 ar  
    30    14    35 1   
    31    15    34 1   
    32    16    23 1   
    33    16    33 1   
    34    17    26 1   
    35    17    30 2   
    36    18    29 1   
    37    18    32 1   
    38    18    62 1   
    39    19    20 1   
    40    19    34 1   
    41    19    55 1   
    42    19    56 1   
    43    20    25 1   
    44    20    35 1   
    45    20    54 1   
    46    21    27 1   
    47    21    45 1   
    48    21    46 1   
    49    22    27 1   
    50    22    47 1   
    51    22    48 1   
    52    23    26 1   
    53    23    49 1   
    54    23    50 1   
    55    24    27 1   
    56    24    59 1   
    57    24    60 1   
    58    24    61 1   
    59    25    57 1   
    60    25    58 1   
    61    25    62 1   
    62    26    51 1   
    63    28    63 1   
    64    31    63 1   
    65    52    62 1   
    66    53    62 1   
@<TRIPOS>SUBSTRUCTURE
     1 NFW         1 TEMP              0 ****  ****    0 ROOT
