@<TRIPOS>MOLECULE
NFW
   63    66     1     0     0
SMALL
No Charge or Current Charge


@<TRIPOS>ATOM
      1 C1          -5.9440    -3.2660     2.3120 ca         1 NFW      -0.134000
      2 C2          -4.9790    -4.2400     2.0390 ca         1 NFW      -0.111000
      3 C3          -3.7540     4.0580     1.3360 cc         1 NFW      -0.201000
      4 C4          -5.9250    -2.0490     1.6160 ca         1 NFW      -0.071000
      5 C5          -4.0030    -3.9980     1.0620 ca         1 NFW      -0.124000
      6 C6           1.6850    -2.3250    -0.8530 ca         1 NFW      -0.127000
      7 C7           2.9950    -1.9490    -0.5190 ca         1 NFW      -0.150000
      8 C8          -3.2820     2.8070     0.8940 cc         1 NFW      -0.152000
      9 C9          -4.6030     4.5150     0.3670 cd         1 NFW       0.081900
     10 C10         -4.9370    -1.7720     0.6400 ca         1 NFW      -0.108600
     11 C11          1.0530     0.0240    -1.1060 ca         1 NFW      -0.090600
     12 C12         -3.9640    -2.7770     0.3510 ca         1 NFW      -0.042300
     13 C13          0.7020    -1.3520    -1.1390 ca         1 NFW      -0.109300
     14 C14          3.3420    -0.5930    -0.4740 ca         1 NFW       0.069100
     15 C15          2.3770     0.3970    -0.7870 ca         1 NFW       0.059100
     16 C16         -3.8750     2.5790    -0.3170 cd         1 NFW       0.119300
     17 C19         -5.0060    -0.4170    -0.0430 c          1 NFW       0.591700
     18 C21          8.6940     0.9090     1.2390 c          1 NFW       0.717000
     19 C22          4.1410     2.0530    -0.7880 c6         1 NFW       0.114600
     20 C23          4.8830     1.1360     0.2140 c6         1 NFW       0.127300
     21 C24         -2.8980    -2.6500    -0.7450 c3         1 NFW       0.189100
     22 C25         -0.7150    -1.8300    -1.4900 c3         1 NFW       0.223100
     23 C26         -3.7480     1.3980    -1.2490 c3         1 NFW       0.064700
     24 C27         -1.0950    -2.3200     0.9180 c3         1 NFW       0.145100
     25 C29          6.4210     1.3670     0.2200 c3         1 NFW      -0.049400
     26 N30         -3.8430     0.1070    -0.5530 ns         1 NFW      -0.470900
     27 N31         -1.6930    -1.8630    -0.3640 n3         1 NFW      -0.690600
     28 O32         -0.3990     1.7640    -0.5040 o          1 NFW      -0.723500
     29 O33          9.4220     0.2910     0.4770 o          1 NFW      -0.751000
     30 O34         -6.0630     0.1930    -0.1470 o          1 NFW      -0.648100
     31 O35         -0.2520     1.2720    -2.6000 o          1 NFW      -0.723500
     32 O36          9.0770     1.8390     1.9320 o          1 NFW      -0.751000
     33 O37         -4.7010     3.6220    -0.6770 os         1 NFW      -0.238000
     34 O38          2.7340     1.7340    -0.7910 os         1 NFW      -0.306100
     35 O39          4.6330    -0.2440    -0.1290 os         1 NFW      -0.337100
     36 H1          -6.7070    -3.4510     3.0640 ha         1 NFW       0.100000
     37 H2          -4.9900    -5.1860     2.5760 ha         1 NFW       0.098000
     38 H4          -6.6830    -1.3030     1.8500 ha         1 NFW       0.129000
     39 H5          -3.2700    -4.7720     0.8500 ha         1 NFW       0.106000
     40 H3          -3.4870     4.5530     2.2650 ha         1 NFW       0.122000
     41 H8          -2.5830     2.1590     1.4150 ha         1 NFW       0.194000
     42 H9          -5.1790     5.4290     0.3020 h4         1 NFW       0.025100
     43 H6           1.4270    -3.3810    -0.8790 ha         1 NFW       0.082000
     44 H7           3.7380    -2.7080    -0.2900 ha         1 NFW       0.108000
     45 H241        -2.5870    -3.6630    -1.0340 h1         1 NFW       0.035700
     46 H242        -3.3630    -2.2180    -1.6410 h1         1 NFW       0.035700
     47 H251        -1.1150    -1.2120    -2.3040 h1         1 NFW       0.033700
     48 H252        -0.6160    -2.8410    -1.9080 h1         1 NFW       0.033700
     49 H261        -4.5370     1.4540    -2.0100 h1         1 NFW       0.092200
     50 H262        -2.7840     1.4560    -1.7680 h1         1 NFW       0.092200
     51 H30         -2.9970    -0.4490    -0.4180 hn         1 NFW       0.385500
     52 H281         7.0620    -0.5120     1.0060 hc         1 NFW       0.025200
     53 H282         6.7670     0.8100     2.2470 hc         1 NFW       0.025200
     54 H23          4.4890     1.3250     1.2230 h1         1 NFW       0.049700
     55 H221         4.2720     3.1100    -0.5200 h1         1 NFW       0.054200
     56 H222         4.5430     1.8980    -1.7990 h1         1 NFW       0.054200
     57 H291         6.8290     1.1500    -0.7750 hc         1 NFW       0.047700
     58 H292         6.6180     2.4310     0.4010 hc         1 NFW       0.047700
     59 H271        -0.7240    -3.3500     0.8320 h1         1 NFW       0.035033
     60 H272        -0.2600    -1.6750     1.2190 h1         1 NFW       0.035033
     61 H273        -1.8290    -2.2850     1.7330 h1         1 NFW       0.035033
     62 C28          7.2020     0.5420     1.2770 c3         1 NFW      -0.203400
     63 C20          0.0480     1.0960    -1.4260 c          1 NFW       0.733600
@<TRIPOS>BOND
     1     1     2 ar  
     2     1     4 ar  
     3     1    36 1   
     4     2     5 ar  
     5     2    37 1   
     6     3     8 1   
     7     3     9 2   
     8     3    40 1   
     9     4    10 ar  
    10     4    38 1   
    11     5    12 ar  
    12     5    39 1   
    13     6     7 ar  
    14     6    13 ar  
    15     6    43 1   
    16     7    14 ar  
    17     7    44 1   
    18     8    16 2   
    19     8    41 1   
    20     9    33 1   
    21     9    42 1   
    22    10    12 ar  
    23    10    17 1   
    24    11    13 ar  
    25    11    15 ar  
    26    11    63 1   
    27    12    21 1   
    28    13    22 1   
    29    14    15 ar  
    30    14    35 1   
    31    15    34 1   
    32    16    23 1   
    33    16    33 1   
    34    17    26 1   
    35    17    30 2   
    36    18    29 1   
    37    18    32 1   
    38    18    62 1   
    39    19    20 1   
    40    19    34 1   
    41    19    55 1   
    42    19    56 1   
    43    20    25 1   
    44    20    35 1   
    45    20    54 1   
    46    21    27 1   
    47    21    45 1   
    48    21    46 1   
    49    22    27 1   
    50    22    47 1   
    51    22    48 1   
    52    23    26 1   
    53    23    49 1   
    54    23    50 1   
    55    24    27 1   
    56    24    59 1   
    57    24    60 1   
    58    24    61 1   
    59    25    57 1   
    60    25    58 1   
    61    25    62 1   
    62    26    51 1   
    63    28    63 1   
    64    31    63 1   
    65    52    62 1   
    66    53    62 1   
@<TRIPOS>SUBSTRUCTURE
     1 NFW         1 TEMP              0 ****  ****    0 ROOT
