@<TRIPOS>MOLECULE
NFX
   41    44     1     0     0
SMALL
No Charge or Current Charge


@<TRIPOS>ATOM
      1 F           -2.2180     2.6560    -0.3970 f          1 NFX      -0.197000
      2 O02          2.8340     2.5830    -0.5230 o          1 NFX      -0.539100
      3 O03          5.5850     0.0480     1.3180 o          1 NFX      -0.710000
      4 O            5.2410     2.0400     0.6520 o          1 NFX      -0.710000
      5 N01         -3.0130     0.0460     0.3690 nh         1 NFX      -0.882400
      6 N            1.8030    -1.1550     0.3330 na         1 NFX      -0.632200
      7 C01         -5.2300    -0.2610    -0.4430 c5         1 NFX       0.141500
      8 C02         -5.2510    -0.0630     1.0960 c5         1 NFX      -0.136400
      9 C03         -3.7600    -0.7820    -0.6230 c5         1 NFX       0.244800
     10 C04         -3.9130     0.6830     1.3630 c5         1 NFX       0.239800
     11 N05         -5.5330     0.9980    -1.1630 n8         1 NFX      -0.994200
     12 C06          1.7000    -2.5180    -0.2140 cx         1 NFX       0.172500
     13 C08          1.1100    -2.8690    -1.5600 cx         1 NFX      -0.138400
     14 C09          2.5830    -3.0620    -1.3110 cx         1 NFX      -0.138400
     15 C11         -1.6400     0.3920     0.2140 ca         1 NFX       0.337000
     16 C12          0.7510    -0.2170     0.2470 ca         1 NFX       0.355000
     17 C13         -0.6210    -0.5730     0.4280 ca         1 NFX       0.022000
     18 C14          1.0760     1.1050    -0.0600 ca         1 NFX      -0.214600
     19 C15         -1.2770     1.7080    -0.1610 ca         1 NFX       0.057000
     20 C16          3.0570    -0.7860     0.8450 cc         1 NFX       0.013000
     21 C17          0.0680     2.0650    -0.2780 ca         1 NFX      -0.048000
     22 C18          3.4380     0.5190     0.5460 cd         1 NFX      -0.290400
     23 C19          2.5070     1.4930    -0.0650 c          1 NFX       0.593900
     24 C20          4.8470     0.9020     0.8460 c          1 NFX       0.729200
     25 H01         -5.9680    -1.0140    -0.7580 h1         1 NFX       0.064700
     26 H02         -6.1210     0.5020     1.4500 hc         1 NFX       0.047700
     27 H03         -3.4000    -0.6400    -1.6520 h1         1 NFX       0.053200
     28 H03A        -3.6880    -1.8520    -0.3790 h1         1 NFX       0.053200
     29 H04         -3.5680     0.5350     2.3960 h1         1 NFX       0.043700
     30 H04A        -4.0170     1.7620     1.1840 h1         1 NFX       0.043700
     31 H06          1.4940    -3.1900     0.6210 h1         1 NFX       0.091700
     32 H08          0.4790    -3.7520    -1.6140 hc         1 NFX       0.079700
     33 H08A         0.8080    -2.0510    -2.2090 hc         1 NFX       0.079700
     34 H09          3.2720    -2.3730    -1.7930 hc         1 NFX       0.079700
     35 H09A         2.9540    -4.0770    -1.2000 hc         1 NFX       0.079700
     36 H16          3.7140    -1.5620     1.2390 h4         1 NFX       0.226000
     37 H17          0.3220     3.0940    -0.5240 ha         1 NFX       0.153000
     38 H02A        -5.2670    -1.0290     1.6130 hc         1 NFX       0.047700
     39 H05         -6.3110     1.4730    -0.6920 hn         1 NFX       0.399000
     40 H05A        -4.7380     1.6300    -1.0090 hn         1 NFX       0.399000
     41 Cl          -1.1000    -2.1950     1.0080 cl         1 NFX      -0.215000
@<TRIPOS>BOND
     1     1    19 1   
     2     2    23 2   
     3     3    24 1   
     4     4    24 1   
     5     5     9 1   
     6     5    10 1   
     7     5    15 1   
     8     6    12 1   
     9     6    16 1   
    10     6    20 1   
    11     7     8 1   
    12     7     9 1   
    13     7    11 1   
    14     7    25 1   
    15     8    10 1   
    16     8    26 1   
    17     8    38 1   
    18     9    27 1   
    19     9    28 1   
    20    10    29 1   
    21    10    30 1   
    22    11    39 1   
    23    11    40 1   
    24    12    13 1   
    25    12    14 1   
    26    12    31 1   
    27    13    14 1   
    28    13    32 1   
    29    13    33 1   
    30    14    34 1   
    31    14    35 1   
    32    15    17 ar  
    33    15    19 ar  
    34    16    17 ar  
    35    16    18 ar  
    36    17    41 1   
    37    18    21 ar  
    38    18    23 1   
    39    19    21 ar  
    40    20    22 2   
    41    20    36 1   
    42    21    37 1   
    43    22    23 1   
    44    22    24 1   
@<TRIPOS>SUBSTRUCTURE
     1 NFX         1 TEMP              0 ****  ****    0 ROOT
