@<TRIPOS>MOLECULE
NFX
   41    44     1     0     0
SMALL
abcg2


@<TRIPOS>ATOM
      1 F           -2.1810     2.6840    -0.0680 f          1 NFX      -0.197000
      2 O02          2.7380     2.8200     0.0050 o          1 NFX      -0.539100
      3 O03          5.7010    -0.1560     0.4740 o          1 NFX      -0.710000
      4 O            5.3020     1.9880     0.9100 o          1 NFX      -0.710000
      5 N01         -2.9680     0.0850     0.4720 nh         1 NFX      -0.882400
      6 N            1.7570    -1.1200     0.2620 na         1 NFX      -0.632200
      7 C01         -5.0080    -0.4550    -0.4860 c5         1 NFX       0.141500
      8 C02         -5.2720     0.1190     0.9120 c5         1 NFX      -0.136400
      9 C03         -3.5870    -0.9780    -0.3100 c5         1 NFX       0.244800
     10 C04         -3.9510     0.8000     1.2820 c5         1 NFX       0.239800
     11 N05         -5.0600     0.5120    -1.5720 n8         1 NFX      -0.994200
     12 C06          1.5500    -2.4990    -0.1240 cx         1 NFX       0.172500
     13 C08          0.7950    -2.7920    -1.3740 cx         1 NFX      -0.138400
     14 C09          2.2740    -3.0040    -1.3360 cx         1 NFX      -0.138400
     15 C11         -1.6440     0.4260     0.3760 ca         1 NFX       0.337000
     16 C12          0.7390    -0.1840     0.3090 ca         1 NFX       0.355000
     17 C13         -0.6180    -0.5140     0.5130 ca         1 NFX       0.022000
     18 C14          1.0830     1.1700     0.1950 ca         1 NFX      -0.214600
     19 C15         -1.2360     1.7530     0.1390 ca         1 NFX       0.057000
     20 C16          3.0410    -0.7020     0.3570 cc         1 NFX       0.013000
     21 C17          0.0720     2.1310     0.1090 ca         1 NFX      -0.048000
     22 C18          3.4660     0.5880     0.3990 cd         1 NFX      -0.290400
     23 C19          2.4880     1.6310     0.1860 c          1 NFX       0.593900
     24 C20          4.9540     0.8370     0.6050 c          1 NFX       0.729200
     25 H01         -5.6960    -1.2710    -0.7160 h1         1 NFX       0.064700
     26 H02         -6.1130     0.8120     0.9330 hc         1 NFX       0.047700
     27 H03         -3.0670    -1.1190    -1.2590 h1         1 NFX       0.053200
     28 H03A        -3.6100    -1.9390     0.2120 h1         1 NFX       0.053200
     29 H04         -3.7300     0.7040     2.3490 h1         1 NFX       0.043700
     30 H04A        -3.9870     1.8640     1.0530 h1         1 NFX       0.043700
     31 H06          1.4420    -3.1900     0.7020 h1         1 NFX       0.091700
     32 H08          0.1340    -3.6480    -1.3620 hc         1 NFX       0.079700
     33 H08A         0.4260    -1.9510    -1.9490 hc         1 NFX       0.079700
     34 H09          2.8950    -2.3120    -1.8900 hc         1 NFX       0.079700
     35 H09A         2.6580    -4.0140    -1.2900 hc         1 NFX       0.079700
     36 H16          3.7710    -1.4990     0.3840 h4         1 NFX       0.226000
     37 H17          0.3340     3.1700    -0.0340 ha         1 NFX       0.153000
     38 H02A        -5.4930    -0.6930     1.6090 hc         1 NFX       0.047700
     39 H05         -5.9570     0.9820    -1.5660 hn         1 NFX       0.399000
     40 H05A        -4.3700     1.2370    -1.4160 hn         1 NFX       0.399000
     41 CL          -1.0650    -2.0590     1.1460 cl         1 NFX      -0.215000
@<TRIPOS>BOND
     1     1    19 1   
     2     2    23 2   
     3     3    24 1   
     4     4    24 1   
     5     5     9 1   
     6     5    10 1   
     7     5    15 1   
     8     6    12 1   
     9     6    16 1   
    10     6    20 1   
    11     7     8 1   
    12     7     9 1   
    13     7    11 1   
    14     7    25 1   
    15     8    10 1   
    16     8    26 1   
    17     8    38 1   
    18     9    27 1   
    19     9    28 1   
    20    10    29 1   
    21    10    30 1   
    22    11    39 1   
    23    11    40 1   
    24    12    13 1   
    25    12    14 1   
    26    12    31 1   
    27    13    14 1   
    28    13    32 1   
    29    13    33 1   
    30    14    34 1   
    31    14    35 1   
    32    15    17 ar  
    33    15    19 ar  
    34    16    17 ar  
    35    16    18 ar  
    36    17    41 1   
    37    18    21 ar  
    38    18    23 1   
    39    19    21 ar  
    40    20    22 2   
    41    20    36 1   
    42    21    37 1   
    43    22    23 1   
    44    22    24 1   
@<TRIPOS>SUBSTRUCTURE
     1 NFX         1 TEMP              0 ****  ****    0 ROOT
