@<TRIPOS>MOLECULE
NFZ
   20    20     1     0     0
SMALL
No Charge or Current Charge


@<TRIPOS>ATOM
      1 O4           5.2150     0.1890     0.1580 o          1 NFZ      -0.619100
      2 C6           4.0110     0.3340     0.0520 c          1 NFZ       0.676100
      3 N4           3.4820     1.1370    -0.8880 nt         1 NFZ      -0.596000
      4 N3           3.1000    -0.3030     0.8760 ns         1 NFZ      -0.281900
      5 N2           1.7200    -0.1740     0.7840 n2         1 NFZ      -0.401300
      6 C5           1.0380    -1.1020     0.1830 ce         1 NFZ       0.242200
      7 C3          -0.4160    -1.0310     0.0240 cc         1 NFZ       0.170700
      8 C4          -1.2840    -1.9080    -0.5710 cd         1 NFZ      -0.191000
      9 C2          -2.5810    -1.3670    -0.4550 cd         1 NFZ      -0.057000
     10 O3          -1.1320     0.0450     0.5100 os         1 NFZ      -0.169000
     11 C1          -2.4650    -0.1730     0.2100 cc         1 NFZ       0.009500
     12 N1          -3.4700     0.7960     0.5980 no         1 NFZ       0.622500
     13 O1          -3.1020     1.8140     1.2010 o          1 NFZ      -0.379500
     14 O2          -4.6490     0.5510     0.3050 o          1 NFZ      -0.379500
     15 HN41         4.0900     1.6360    -1.5180 hn         1 NFZ       0.338000
     16 HN42         2.4800     1.2430    -0.9300 hn         1 NFZ       0.338000
     17 HN3          3.5210    -0.8860     1.5940 hn         1 NFZ       0.328500
     18 H5           1.5140    -1.9890    -0.2420 h4         1 NFZ       0.016800
     19 H4          -1.0160    -2.8470    -1.0450 ha         1 NFZ       0.158000
     20 H2          -3.5030    -1.8080    -0.8210 ha         1 NFZ       0.173000
@<TRIPOS>BOND
     1     1     2 2   
     2     2     3 1   
     3     2     4 1   
     4     3    15 1   
     5     3    16 1   
     6     4     5 1   
     7     4    17 1   
     8     5     6 2   
     9     6     7 1   
    10     6    18 1   
    11     7     8 2   
    12     7    10 1   
    13     8     9 1   
    14     8    19 1   
    15     9    11 2   
    16     9    20 1   
    17    10    11 1   
    18    11    12 1   
    19    12    13 1   
    20    12    14 1   
@<TRIPOS>SUBSTRUCTURE
     1 NFZ         1 TEMP              0 ****  ****    0 ROOT
