@<TRIPOS>MOLECULE
NFZ
   20    20     1     0     0
SMALL
bcc


@<TRIPOS>ATOM
      1 O4           5.1230     0.3380    -0.0240 o          1 NFZ      -0.619100
      2 C6           3.9170     0.5270    -0.0090 c          1 NFZ       0.810100
      3 N4           3.3220     1.7270     0.0180 nt         1 NFZ      -0.663000
      4 N3           3.0580    -0.5610    -0.0070 ns         1 NFZ      -0.348900
      5 N2           1.7450    -0.3970     0.0000 n2         1 NFZ      -0.401300
      6 C5           0.9880    -1.4230     0.0070 ce         1 NFZ       0.242200
      7 C3          -0.4410    -1.2640     0.0110 cc         1 NFZ       0.280400
      8 C4          -1.4360    -2.2050     0.0170 cd         1 NFZ      -0.274300
      9 C2          -2.6550    -1.4980     0.0150 cd         1 NFZ      -0.140300
     10 O3          -0.9680    -0.0290     0.0050 os         1 NFZ      -0.257800
     11 C1          -2.2960    -0.1860     0.0080 cc         1 NFZ       0.119200
     12 N1          -3.0850     0.9810     0.0010 no         1 NFZ       0.242500
     13 O1          -2.5230     2.0530    -0.0030 o          1 NFZ      -0.189500
     14 O2          -4.2880     0.8240     0.0010 o          1 NFZ      -0.189500
     15 HN41         3.8910     2.5540    -0.0410 hn         1 NFZ       0.338000
     16 HN42         2.3230     1.8260    -0.0180 hn         1 NFZ       0.338000
     17 HN3          3.4760    -1.4860    -0.0060 hn         1 NFZ       0.328500
     18 H5           1.3570    -2.4470     0.0090 h4         1 NFZ       0.016800
     19 H4          -1.3000    -3.2740     0.0220 ha         1 NFZ       0.176000
     20 H2          -3.6530    -1.9030     0.0200 ha         1 NFZ       0.191000
@<TRIPOS>BOND
     1     1     2 2   
     2     2     3 1   
     3     2     4 1   
     4     3    15 1   
     5     3    16 1   
     6     4     5 1   
     7     4    17 1   
     8     5     6 2   
     9     6     7 1   
    10     6    18 1   
    11     7     8 2   
    12     7    10 1   
    13     8     9 1   
    14     8    19 1   
    15     9    11 2   
    16     9    20 1   
    17    10    11 1   
    18    11    12 1   
    19    12    13 1   
    20    12    14 1   
@<TRIPOS>SUBSTRUCTURE
     1 NFZ         1 TEMP              0 ****  ****    0 ROOT
