@<TRIPOS>MOLECULE
NG2
   69    73     1     0     0
SMALL
bcc


@<TRIPOS>ATOM
      1 C01          6.6130    -2.6800     1.8130 c3         1 NG2      -0.046800
      2 C02          5.3430    -2.1640     1.2120 ca         1 NG2      -0.052300
      3 C03          4.1000    -2.4500     1.7680 ca         1 NG2      -0.126000
      4 C04          2.9260    -1.9560     1.2210 ca         1 NG2      -0.114000
      5 C05          2.9680    -1.1600     0.0800 ca         1 NG2      -0.145600
      6 C06          4.2010    -0.8570    -0.4880 ca         1 NG2      -0.100000
      7 C07          5.3600    -1.3560     0.0760 ca         1 NG2       0.105100
      8 O08          6.5800    -1.1060    -0.4980 os         1 NG2      -0.248200
      9 C09          6.9330     0.1630    -0.8130 ca         1 NG2       0.201100
     10 C10          7.7430     0.3530    -1.9200 ca         1 NG2      -0.306300
     11 C11          8.1780     1.6410    -2.2410 ca         1 NG2       0.445200
     12 N12          7.8660     2.7300    -1.5570 nb         1 NG2      -0.694000
     13 C13          7.0880     2.5190    -0.5050 ca         1 NG2       0.450800
     14 C14          6.5720     1.2800    -0.0540 ca         1 NG2      -0.253100
     15 C15          5.8120     1.5510     1.1260 cc         1 NG2      -0.172200
     16 C16          5.8940     2.8960     1.3330 cd         1 NG2      -0.105100
     17 N17          6.6540     3.4750     0.3570 na         1 NG2      -0.272100
     18 C18          1.7560    -0.5650    -0.5570 c          1 NG2       0.691700
     19 N19          0.5970    -1.2350    -0.3300 ns         1 NG2      -0.469100
     20 C20         -0.7000    -0.8990    -0.7230 ca         1 NG2       0.072600
     21 C21         -1.0480     0.2370    -1.4470 ca         1 NG2      -0.124000
     22 C22         -2.3810     0.4560    -1.7580 ca         1 NG2      -0.112000
     23 C23         -3.4050    -0.4030    -1.3830 ca         1 NG2      -0.055300
     24 C24         -3.0380    -1.5510    -0.6670 ca         1 NG2      -0.141300
     25 C25         -4.0560    -2.5750    -0.2450 c3         1 NG2       0.721200
     26 F26         -4.7260    -3.0730    -1.2980 f          1 NG2      -0.233300
     27 F27         -3.4960    -3.6260     0.3680 f          1 NG2      -0.233300
     28 F28         -4.9660    -2.0850     0.5990 f          1 NG2      -0.233300
     29 C29         -1.7100    -1.7870    -0.3490 ca         1 NG2      -0.151000
     30 C30         -4.8200    -0.0250    -1.7490 c3         1 NG2       0.209100
     31 N31         -5.5690     0.5160    -0.6320 n3         1 NG2      -0.711600
     32 C32         -6.9590     0.7110    -0.9910 c6         1 NG2       0.164300
     33 C33         -7.7610     1.2230     0.1890 c6         1 NG2       0.164300
     34 N34         -7.2050     2.4640     0.6900 n3         1 NG2      -0.720600
     35 C35         -5.8190     2.2550     1.0590 c6         1 NG2       0.164300
     36 C36         -5.0110     1.7500    -0.1210 c6         1 NG2       0.164300
     37 C37         -7.9690     3.0190     1.7940 c3         1 NG2       0.169800
     38 C38         -9.3470     3.5160     1.3880 c3         1 NG2      -0.090100
     39 O39          1.8330     0.4430    -1.2360 o          1 NG2      -0.573100
     40 H1           7.1900    -3.2660     1.0970 hc         1 NG2       0.052367
     41 H2           7.2530    -1.8610     2.1480 hc         1 NG2       0.052367
     42 H3           6.4040    -3.3130     2.6730 hc         1 NG2       0.052367
     43 H4           4.0510    -3.0600     2.6600 ha         1 NG2       0.139000
     44 H5           1.9920    -2.1780     1.7210 ha         1 NG2       0.133000
     45 H6           4.2510    -0.2340    -1.3730 ha         1 NG2       0.171000
     46 H7           8.0410    -0.4860    -2.5340 ha         1 NG2       0.154000
     47 H8           8.8120     1.7790    -3.1090 h4         1 NG2       0.022100
     48 H9           5.2710     0.8540     1.7440 ha         1 NG2       0.160000
     49 H10          5.4580     3.4960     2.1150 h4         1 NG2       0.167000
     50 H11          6.8720     4.4560     0.2900 hn         1 NG2       0.311700
     51 H12          0.6680    -2.1140     0.1600 hn         1 NG2       0.323500
     52 H13         -0.3070     0.9490    -1.7690 ha         1 NG2       0.173000
     53 H14         -2.6350     1.3460    -2.3190 ha         1 NG2       0.138000
     54 H15         -1.4310    -2.6760     0.2000 ha         1 NG2       0.144000
     55 H16         -4.7670     0.6930    -2.5850 h1         1 NG2       0.045200
     56 H17         -5.3670    -0.8860    -2.1340 h1         1 NG2       0.045200
     57 H19         -7.0670     1.4210    -1.8310 h1         1 NG2       0.038200
     58 H20         -7.3810    -0.2420    -1.3180 h1         1 NG2       0.038200
     59 H21         -8.7890     1.3810    -0.1420 h1         1 NG2       0.039200
     60 H22         -7.7890     0.4460     0.9740 h1         1 NG2       0.039200
     61 H24         -5.3910     3.2000     1.4000 h1         1 NG2       0.039200
     62 H25         -5.7220     1.5340     1.8900 h1         1 NG2       0.039200
     63 H26         -3.9860     1.5820     0.2130 h1         1 NG2       0.038200
     64 H27         -4.9710     2.5340    -0.9000 h1         1 NG2       0.038200
     65 H28         -8.0660     2.2930     2.6200 h1         1 NG2       0.028700
     66 H29         -7.4000     3.8630     2.1930 h1         1 NG2       0.028700
     67 H30        -10.0050     2.7110     1.0610 hc         1 NG2       0.036700
     68 H31         -9.8310     4.0030     2.2340 hc         1 NG2       0.036700
     69 H32         -9.2720     4.2420     0.5780 hc         1 NG2       0.036700
@<TRIPOS>BOND
     1     1     2 1   
     2     1    40 1   
     3     1    41 1   
     4     1    42 1   
     5     2     3 ar  
     6     2     7 ar  
     7     3     4 ar  
     8     3    43 1   
     9     4     5 ar  
    10     4    44 1   
    11     5     6 ar  
    12     5    18 1   
    13     6     7 ar  
    14     6    45 1   
    15     7     8 1   
    16     8     9 1   
    17     9    10 ar  
    18     9    14 ar  
    19    10    11 ar  
    20    10    46 1   
    21    11    12 ar  
    22    11    47 1   
    23    12    13 ar  
    24    13    14 ar  
    25    13    17 1   
    26    14    15 1   
    27    15    16 2   
    28    15    48 1   
    29    16    17 1   
    30    16    49 1   
    31    17    50 1   
    32    18    19 1   
    33    18    39 2   
    34    19    20 1   
    35    19    51 1   
    36    20    21 ar  
    37    20    29 ar  
    38    21    22 ar  
    39    21    52 1   
    40    22    23 ar  
    41    22    53 1   
    42    23    24 ar  
    43    23    30 1   
    44    24    25 1   
    45    24    29 ar  
    46    25    26 1   
    47    25    27 1   
    48    25    28 1   
    49    29    54 1   
    50    30    31 1   
    51    30    55 1   
    52    30    56 1   
    53    31    32 1   
    54    31    36 1   
    55    32    33 1   
    56    32    57 1   
    57    32    58 1   
    58    33    34 1   
    59    33    59 1   
    60    33    60 1   
    61    34    35 1   
    62    34    37 1   
    63    35    36 1   
    64    35    61 1   
    65    35    62 1   
    66    36    63 1   
    67    36    64 1   
    68    37    38 1   
    69    37    65 1   
    70    37    66 1   
    71    38    67 1   
    72    38    68 1   
    73    38    69 1   
@<TRIPOS>SUBSTRUCTURE
     1 NG2         1 TEMP              0 ****  ****    0 ROOT
