@<TRIPOS>MOLECULE
NG2
   69    73     1     0     0
SMALL
No Charge or Current Charge


@<TRIPOS>ATOM
      1 C01          6.8590    -3.0260     1.3990 c3         1 NG2      -0.046800
      2 C02          5.5690    -2.4500     0.8280 ca         1 NG2      -0.052300
      3 C03          4.3270    -2.9960     1.1990 ca         1 NG2      -0.108000
      4 C04          3.1290    -2.4710     0.6850 ca         1 NG2      -0.096000
      5 C05          3.1480    -1.3820    -0.2220 ca         1 NG2      -0.145600
      6 C06          4.4010    -0.8400    -0.5900 ca         1 NG2      -0.082000
      7 C07          5.6010    -1.3610    -0.0640 ca         1 NG2       0.105100
      8 O08          6.8180    -0.8240    -0.4310 os         1 NG2      -0.248200
      9 C09          6.9950     0.5170    -0.6780 ca         1 NG2       0.201100
     10 C10          7.6730     0.9380    -1.8280 ca         1 NG2      -0.223000
     11 C11          7.8420     2.3170    -2.0500 ca         1 NG2       0.379900
     12 N12          7.3840     3.2680    -1.1960 nb         1 NG2      -0.694000
     13 C13          6.7440     2.8460    -0.0900 ca         1 NG2       0.385500
     14 C14          6.5410     1.5170     0.1940 ca         1 NG2      -0.187800
     15 C15          5.8550     1.4250     1.4520 cc         1 NG2      -0.222200
     16 C16          5.6520     2.7230     1.8890 cd         1 NG2      -0.155100
     17 N17          6.2030     3.6080     0.9280 na         1 NG2      -0.322400
     18 C18          1.8770    -0.7870    -0.8050 c          1 NG2       0.624700
     19 N19          0.6880    -1.3710    -0.3820 ns         1 NG2      -0.143000
     20 C20         -0.6780    -1.1100    -0.6880 ca         1 NG2      -0.020000
     21 C21         -1.1020    -0.1030    -1.5760 ca         1 NG2      -0.106000
     22 C22         -2.4690     0.0880    -1.8230 ca         1 NG2      -0.094000
     23 C23         -3.4450    -0.7100    -1.1940 ca         1 NG2      -0.055300
     24 C24         -3.0340    -1.7370    -0.2960 ca         1 NG2      -0.141300
     25 C25         -4.0510    -2.6610     0.4120 c3         1 NG2       0.357300
     26 F26         -4.7630    -3.3960    -0.4720 f          1 NG2      -0.112000
     27 F27         -3.4660    -3.5480     1.2500 f          1 NG2      -0.112000
     28 F28         -4.9370    -1.9700     1.1640 f          1 NG2      -0.112000
     29 C29         -1.6470    -1.9140    -0.0620 ca         1 NG2      -0.133000
     30 C30         -4.9180    -0.4250    -1.5270 c3         1 NG2       0.209100
     31 N31         -5.6150     0.4230    -0.5290 n3         1 NG2      -0.711600
     32 C32         -7.0750     0.5550    -0.8110 c6         1 NG2       0.164300
     33 C33         -7.8180     1.4100     0.2660 c6         1 NG2       0.164300
     34 N34         -7.2100     2.7690     0.4380 n3         1 NG2      -0.720600
     35 C35         -5.7470     2.6300     0.7200 c6         1 NG2       0.164300
     36 C36         -5.0040     1.7770    -0.3570 c6         1 NG2       0.164300
     37 C37         -7.8950     3.6110     1.4490 c3         1 NG2       0.169800
     38 C38         -9.3570     3.9620     1.1070 c3         1 NG2      -0.090100
     39 O39          1.9230     0.1480    -1.5980 o          1 NG2      -0.573100
     40 H1           7.5090    -3.4010     0.5980 hc         1 NG2       0.052367
     41 H2           7.4170    -2.2630     1.9540 hc         1 NG2       0.052367
     42 H3           6.6670    -3.8600     2.0850 hc         1 NG2       0.052367
     43 H4           4.2860    -3.8340     1.8920 ha         1 NG2       0.121000
     44 H5           2.1950    -2.9280     1.0030 ha         1 NG2       0.115000
     45 H6           4.4460    -0.0080    -1.2890 ha         1 NG2       0.153000
     46 H7           8.0590     0.2170    -2.5410 ha         1 NG2       0.136000
     47 H8           8.3610     2.6740    -2.9380 h4         1 NG2       0.022100
     48 H9           5.5490     0.5240     1.9820 ha         1 NG2       0.210000
     49 H10          5.1680     3.0780     2.7980 h4         1 NG2       0.217000
     50 H11          6.2130     4.6200     0.9650 hn         1 NG2       0.362000
     51 H12          0.8150    -2.1300     0.2720 hn         1 NG2       0.157000
     52 H13         -0.3950     0.5440    -2.0860 ha         1 NG2       0.155000
     53 H14         -2.7750     0.8730    -2.5110 ha         1 NG2       0.120000
     54 H15         -1.3040    -2.6910     0.6180 ha         1 NG2       0.126000
     55 H16         -4.9650     0.0580    -2.5130 h1         1 NG2       0.045200
     56 H17         -5.4500    -1.3780    -1.6410 h1         1 NG2       0.045200
     57 H19         -7.2280     1.0240    -1.7950 h1         1 NG2       0.038200
     58 H20         -7.5450    -0.4390    -0.8520 h1         1 NG2       0.038200
     59 H21         -8.8710     1.4900    -0.0360 h1         1 NG2       0.039200
     60 H22         -7.7970     0.8630     1.2210 h1         1 NG2       0.039200
     61 H24         -5.2730     3.6210     0.7660 h1         1 NG2       0.039200
     62 H25         -5.5960     2.1570     1.7020 h1         1 NG2       0.039200
     63 H26         -3.9510     1.6890    -0.0540 h1         1 NG2       0.038200
     64 H27         -5.0210     2.3230    -1.3120 h1         1 NG2       0.038200
     65 H28         -7.8730     3.1160     2.4290 h1         1 NG2       0.028700
     66 H29         -7.3490     4.5580     1.5560 h1         1 NG2       0.028700
     67 H30         -9.9980     3.0730     1.1330 hc         1 NG2       0.036700
     68 H31         -9.7510     4.6790     1.8370 hc         1 NG2       0.036700
     69 H32         -9.4240     4.4160     0.1120 hc         1 NG2       0.036700
@<TRIPOS>BOND
     1     1     2 1   
     2     1    40 1   
     3     1    41 1   
     4     1    42 1   
     5     2     3 ar  
     6     2     7 ar  
     7     3     4 ar  
     8     3    43 1   
     9     4     5 ar  
    10     4    44 1   
    11     5     6 ar  
    12     5    18 1   
    13     6     7 ar  
    14     6    45 1   
    15     7     8 1   
    16     8     9 1   
    17     9    10 ar  
    18     9    14 ar  
    19    10    11 ar  
    20    10    46 1   
    21    11    12 ar  
    22    11    47 1   
    23    12    13 ar  
    24    13    14 ar  
    25    13    17 1   
    26    14    15 1   
    27    15    16 2   
    28    15    48 1   
    29    16    17 1   
    30    16    49 1   
    31    17    50 1   
    32    18    19 1   
    33    18    39 2   
    34    19    20 1   
    35    19    51 1   
    36    20    21 ar  
    37    20    29 ar  
    38    21    22 ar  
    39    21    52 1   
    40    22    23 ar  
    41    22    53 1   
    42    23    24 ar  
    43    23    30 1   
    44    24    25 1   
    45    24    29 ar  
    46    25    26 1   
    47    25    27 1   
    48    25    28 1   
    49    29    54 1   
    50    30    31 1   
    51    30    55 1   
    52    30    56 1   
    53    31    32 1   
    54    31    36 1   
    55    32    33 1   
    56    32    57 1   
    57    32    58 1   
    58    33    34 1   
    59    33    59 1   
    60    33    60 1   
    61    34    35 1   
    62    34    37 1   
    63    35    36 1   
    64    35    61 1   
    65    35    62 1   
    66    36    63 1   
    67    36    64 1   
    68    37    38 1   
    69    37    65 1   
    70    37    66 1   
    71    38    67 1   
    72    38    68 1   
    73    38    69 1   
@<TRIPOS>SUBSTRUCTURE
     1 NG2         1 TEMP              0 ****  ****    0 ROOT
