@<TRIPOS>MOLECULE
NG4
   81    84     1     0     0
SMALL
bcc


@<TRIPOS>ATOM
      1 C13          2.7020     4.3790    -2.1800 c3         1 NG4      -0.085600
      2 C15          1.4400     2.3120     0.1790 c3         1 NG4       0.197800
      3 C20         -2.9950     0.4090    -0.4030 c          1 NG4       0.758100
      4 C24         -5.2090    -1.0560    -2.0580 c5         1 NG4       0.106400
      5 C26         -5.7980    -1.8770     0.0820 c5         1 NG4      -0.132700
      6 C28         -5.0120    -3.1840     0.2020 c5         1 NG4      -0.103400
      7 C01          4.9300    -2.7590     0.3670 ca         1 NG4      -0.063300
      8 C02          5.4780    -1.8590    -0.5390 ca         1 NG4      -0.142500
      9 C03          5.2100    -0.5020    -0.4390 ca         1 NG4      -0.023500
     10 C04          4.3730    -0.0400     0.5690 ca         1 NG4      -0.285500
     11 C05          3.8350    -0.9210     1.4970 ca         1 NG4      -0.023500
     12 C06          4.1210    -2.2710     1.3910 ca         1 NG4      -0.142500
     13 C11          2.9710     1.8900    -1.7580 c3         1 NG4       0.226800
     14 C12          3.5220     3.1280    -2.4670 c3         1 NG4      -0.082700
     15 C14          3.5780     2.8410    -3.9640 c3         1 NG4      -0.085600
     16 C16          0.5070     1.1070     0.1810 c3         1 NG4       0.112100
     17 C18         -0.9570     1.5370     0.3420 c3         1 NG4       0.091700
     18 C23         -5.0530    -0.7230    -0.5750 c5         1 NG4       0.140100
     19 C27         -6.8810    -2.2080    -0.9600 c5         1 NG4       0.328900
     20 C29         -6.0620    -4.2180    -0.1620 c5         1 NG4       0.131400
     21 C31         -1.2320     2.2990     1.6530 c3         1 NG4      -0.059100
     22 C32         -2.6870     2.6410     1.7960 ca         1 NG4      -0.089300
     23 C33         -3.2000     3.8040     1.2270 ca         1 NG4      -0.117500
     24 C34         -4.5570     4.0860     1.2860 ca         1 NG4      -0.124500
     25 C35         -5.4270     3.2020     1.9130 ca         1 NG4      -0.122000
     26 C36         -4.9260     2.0440     2.4910 ca         1 NG4      -0.124500
     27 C37         -3.5660     1.7700     2.4360 ca         1 NG4      -0.117500
     28 C39          5.1850    -4.2480     0.2650 c3         1 NG4       0.187400
     29 C40          3.9360    -4.9270    -0.2870 c3         1 NG4       0.104400
     30 N10          2.7760     2.0210    -0.3160 n3         1 NG4      -0.785500
     31 N19         -1.8060     0.3730     0.2330 ns         1 NG4      -0.549900
     32 O08          3.5860     1.9820     2.0450 o          1 NG4      -0.615800
     33 O09          5.2090     2.3710     0.1690 o          1 NG4      -0.615800
     34 O17          0.8880     0.1350     1.1250 oh         1 NG4      -0.598800
     35 O21         -3.3680     1.2750    -1.1630 o          1 NG4      -0.578000
     36 O22         -3.7180    -0.6810    -0.1050 os         1 NG4      -0.429900
     37 O25         -6.5370    -1.5390    -2.1450 os         1 NG4      -0.397600
     38 O30         -6.8720    -3.5960    -1.1490 os         1 NG4      -0.415600
     39 O38          6.3360    -4.5610    -0.4750 oh         1 NG4      -0.570800
     40 O41          4.1290    -6.3180    -0.2680 oh         1 NG4      -0.585800
     41 S07          4.0280     1.6960     0.6880 sy         1 NG4       1.335200
     42 H131         1.6610     4.2530    -2.4890 hc         1 NG4       0.034867
     43 H132         2.7130     4.6410    -1.1220 hc         1 NG4       0.034867
     44 H133         3.1040     5.2330    -2.7270 hc         1 NG4       0.034867
     45 H151         1.0220     3.0900    -0.4640 h1         1 NG4       0.072200
     46 H152         1.5090     2.7580     1.1710 h1         1 NG4       0.072200
     47 H242        -4.4730    -1.8110    -2.3640 h1         1 NG4       0.068200
     48 H261        -6.2350    -1.5920     1.0400 hc         1 NG4       0.077700
     49 H281        -4.1830    -3.2270    -0.5070 hc         1 NG4       0.064200
     50 H282        -4.6030    -3.3390     1.1990 hc         1 NG4       0.064200
     51 H021         6.1340    -2.1970    -1.3300 ha         1 NG4       0.137500
     52 H031         5.6740     0.1810    -1.1370 ha         1 NG4       0.151500
     53 H051         3.2220    -0.5690     2.3130 ha         1 NG4       0.151500
     54 H061         3.7120    -2.9520     2.1270 ha         1 NG4       0.137500
     55 H111         1.9960     1.6360    -2.1830 h1         1 NG4       0.046200
     56 H112         3.6060     1.0270    -1.9760 h1         1 NG4       0.046200
     57 H121         4.5420     3.3000    -2.1140 hc         1 NG4       0.078700
     58 H143         2.5790     2.6630    -4.3690 hc         1 NG4       0.034867
     59 H141         4.0080     3.6840    -4.5070 hc         1 NG4       0.034867
     60 H142         4.1890     1.9630    -4.1830 hc         1 NG4       0.034867
     61 H161         0.5750     0.6100    -0.7920 h1         1 NG4       0.090700
     62 H181        -1.1910     2.1960    -0.4970 h1         1 NG4       0.090700
     63 H231        -5.5550     0.2230    -0.3510 h1         1 NG4       0.077700
     64 H271        -7.8880    -1.8830    -0.6820 h2         1 NG4       0.087700
     65 H291        -5.6410    -5.1330    -0.5810 h1         1 NG4       0.049200
     66 H292        -6.6640    -4.4930     0.7120 h1         1 NG4       0.049200
     67 H312        -0.9110     1.6980     2.5080 hc         1 NG4       0.054200
     68 H311        -0.6320     3.2120     1.6670 hc         1 NG4       0.054200
     69 H331        -2.5310     4.4940     0.7250 ha         1 NG4       0.127000
     70 H341        -4.9380     4.9960     0.8390 ha         1 NG4       0.131500
     71 H351        -6.4870     3.4190     1.9560 ha         1 NG4       0.132000
     72 H361        -5.5940     1.3520     2.9890 ha         1 NG4       0.131500
     73 H371        -3.1860     0.8650     2.8960 ha         1 NG4       0.127000
     74 H391         5.3640    -4.6290     1.2760 h1         1 NG4       0.096700
     75 H401         3.0750    -4.6230     0.3210 h1         1 NG4       0.026200
     76 H402         3.7520    -4.5500    -1.3050 h1         1 NG4       0.026200
     77 H191        -1.6580    -0.3620     0.9090 hn         1 NG4       0.328500
     78 H171         0.9730     0.5480     1.9910 ho         1 NG4       0.411000
     79 H381         6.1340    -4.5190    -1.4160 ho         1 NG4       0.403000
     80 H411         3.3480    -6.7340    -0.6440 ho         1 NG4       0.408000
     81 H241        -5.1100    -0.1930    -2.7140 h1         1 NG4       0.068200
@<TRIPOS>BOND
     1     1    14 1   
     2     1    42 1   
     3     1    43 1   
     4     1    44 1   
     5     2    16 1   
     6     2    30 1   
     7     2    45 1   
     8     2    46 1   
     9     3    31 1   
    10     3    35 2   
    11     3    36 1   
    12     4    18 1   
    13     4    37 1   
    14     4    47 1   
    15     4    81 1   
    16     5     6 1   
    17     5    18 1   
    18     5    19 1   
    19     5    48 1   
    20     6    20 1   
    21     6    49 1   
    22     6    50 1   
    23     7     8 ar  
    24     7    12 ar  
    25     7    28 1   
    26     8     9 ar  
    27     8    51 1   
    28     9    10 ar  
    29     9    52 1   
    30    10    11 ar  
    31    10    41 1   
    32    11    12 ar  
    33    11    53 1   
    34    12    54 1   
    35    13    14 1   
    36    13    30 1   
    37    13    55 1   
    38    13    56 1   
    39    14    15 1   
    40    14    57 1   
    41    15    58 1   
    42    15    59 1   
    43    15    60 1   
    44    16    17 1   
    45    16    34 1   
    46    16    61 1   
    47    17    21 1   
    48    17    31 1   
    49    17    62 1   
    50    18    36 1   
    51    18    63 1   
    52    19    37 1   
    53    19    38 1   
    54    19    64 1   
    55    20    38 1   
    56    20    65 1   
    57    20    66 1   
    58    21    22 1   
    59    21    67 1   
    60    21    68 1   
    61    22    23 ar  
    62    22    27 ar  
    63    23    24 ar  
    64    23    69 1   
    65    24    25 ar  
    66    24    70 1   
    67    25    26 ar  
    68    25    71 1   
    69    26    27 ar  
    70    26    72 1   
    71    27    73 1   
    72    28    29 1   
    73    28    39 1   
    74    28    74 1   
    75    29    40 1   
    76    29    75 1   
    77    29    76 1   
    78    30    41 1   
    79    31    77 1   
    80    32    41 2   
    81    33    41 2   
    82    34    78 1   
    83    39    79 1   
    84    40    80 1   
@<TRIPOS>SUBSTRUCTURE
     1 NG4         1 TEMP              0 ****  ****    0 ROOT
