@<TRIPOS>MOLECULE
NG4
   81    84     1     0     0
SMALL
No Charge or Current Charge


@<TRIPOS>ATOM
      1 C13          2.8050     2.9760    -1.9930 c3         1 NG4      -0.085600
      2 C15          0.8610     1.4270     0.2140 c3         1 NG4       0.197800
      3 C20         -4.0370     0.6140     0.0060 c          1 NG4       0.642100
      4 C24         -6.0140    -1.1260    -1.5440 c5         1 NG4       0.129600
      5 C26         -7.1140    -1.4010     0.5790 c5         1 NG4      -0.132700
      6 C28         -6.2990    -2.5880     1.2130 c5         1 NG4      -0.103400
      7 C01          6.2460    -2.6050    -0.4000 ca         1 NG4      -0.063300
      8 C02          6.6010    -1.2460    -0.2620 ca         1 NG4      -0.124500
      9 C03          5.6810    -0.3120     0.2420 ca         1 NG4      -0.005500
     10 C04          4.3860    -0.7280     0.6130 ca         1 NG4      -0.285500
     11 C05          4.0270    -2.0840     0.4870 ca         1 NG4      -0.005500
     12 C06          4.9520    -3.0140    -0.0170 ca         1 NG4      -0.124500
     13 C11          2.5220     0.4470    -1.4280 c3         1 NG4       0.226800
     14 C12          3.4550     1.5710    -1.9700 c3         1 NG4      -0.082700
     15 C14          3.9940     1.1980    -3.3700 c3         1 NG4      -0.085600
     16 C16         -0.4160     0.6040     0.5520 c3         1 NG4       0.135300
     17 C18         -1.7260     1.4510     0.5560 c3         1 NG4       0.091700
     18 C23         -6.1810    -0.3970    -0.1800 c5         1 NG4       0.163300
     19 C27         -7.9030    -2.1010    -0.5780 c5         1 NG4       0.375300
     20 C29         -7.2410    -3.7630     0.8920 c5         1 NG4       0.154600
     21 C31         -1.7440     2.6090     1.5920 c3         1 NG4      -0.059100
     22 C32         -3.0410     3.4120     1.5670 ca         1 NG4      -0.089300
     23 C33         -3.2470     4.3930     0.5770 ca         1 NG4      -0.099500
     24 C34         -4.4470     5.1250     0.5420 ca         1 NG4      -0.106500
     25 C35         -5.4490     4.8790     1.4960 ca         1 NG4      -0.104000
     26 C36         -5.2500     3.9010     2.4850 ca         1 NG4      -0.106500
     27 C37         -4.0490     3.1710     2.5210 ca         1 NG4      -0.099500
     28 C39          7.2420    -3.6240    -0.9570 c3         1 NG4       0.210600
     29 C40          7.6630    -3.3090    -2.4190 c3         1 NG4       0.127600
     30 N10          2.0540     0.5780    -0.0260 n3         1 NG4      -0.785500
     31 N19         -2.8900     0.5760     0.7450 ns         1 NG4      -0.482900
     32 O08          2.4510    -0.2060     2.3240 o          1 NG4      -0.545000
     33 O09          3.8070     1.7750     1.4020 o          1 NG4      -0.545000
     34 O17         -0.2600    -0.0890     1.8100 oh         1 NG4      -0.661000
     35 O21         -4.2310     1.3430    -0.9550 o          1 NG4      -0.529000
     36 O22         -4.9090    -0.3040     0.5190 os         1 NG4      -0.453100
     37 O25         -7.3520    -1.5980    -1.8120 os         1 NG4      -0.444000
     38 O30         -7.5740    -3.5010    -0.4800 os         1 NG4      -0.462000
     39 O38          8.4180    -3.6750    -0.1350 oh         1 NG4      -0.633000
     40 O41          8.6300    -4.2700    -2.8790 oh         1 NG4      -0.648000
     41 S07          3.1850     0.4570     1.2420 sy         1 NG4       1.193600
     42 H131         1.8790     2.9700    -2.5790 hc         1 NG4       0.034867
     43 H132         2.5770     3.3200    -0.9780 hc         1 NG4       0.034867
     44 H133         3.4870     3.7100    -2.4400 hc         1 NG4       0.034867
     45 H151         0.6310     2.0170    -0.6830 h1         1 NG4       0.072200
     46 H152         1.0520     2.1520     1.0180 h1         1 NG4       0.072200
     47 H242        -5.3290    -1.9820    -1.4810 h1         1 NG4       0.068200
     48 H261        -7.7810    -0.9090     1.2960 hc         1 NG4       0.077700
     49 H281        -5.3220    -2.7610     0.7470 hc         1 NG4       0.064200
     50 H282        -6.1340    -2.4620     2.2890 hc         1 NG4       0.064200
     51 H021         7.5970    -0.9120    -0.5430 ha         1 NG4       0.119500
     52 H031         5.9800     0.7300     0.3400 ha         1 NG4       0.133500
     53 H051         3.0300    -2.4180     0.7690 ha         1 NG4       0.133500
     54 H061         4.6570    -4.0570    -0.1130 ha         1 NG4       0.119500
     55 H111         1.6480     0.3890    -2.0910 h1         1 NG4       0.046200
     56 H112         3.0390    -0.5130    -1.5530 h1         1 NG4       0.046200
     57 H121         4.3280     1.6340    -1.3120 hc         1 NG4       0.078700
     58 H143         3.1760     1.1210    -4.0970 hc         1 NG4       0.034867
     59 H141         4.7020     1.9540    -3.7300 hc         1 NG4       0.034867
     60 H142         4.5180     0.2340    -3.3400 hc         1 NG4       0.034867
     61 H161        -0.5220    -0.1350    -0.2550 h1         1 NG4       0.090700
     62 H181        -1.8100     1.9080    -0.4400 h1         1 NG4       0.090700
     63 H231        -6.6460     0.5930    -0.2900 h1         1 NG4       0.077700
     64 H271        -8.9880    -1.9380    -0.5180 h2         1 NG4       0.087700
     65 H291        -6.7570    -4.7440     0.9870 h1         1 NG4       0.049200
     66 H292        -8.1540    -3.7460     1.5030 h1         1 NG4       0.049200
     67 H312        -1.5780     2.1990     2.5960 hc         1 NG4       0.054200
     68 H311        -0.9030     3.2860     1.4000 hc         1 NG4       0.054200
     69 H331        -2.4780     4.5870    -0.1680 ha         1 NG4       0.109000
     70 H341        -4.6000     5.8800    -0.2250 ha         1 NG4       0.113500
     71 H351        -6.3780     5.4440     1.4680 ha         1 NG4       0.114000
     72 H361        -6.0250     3.7080     3.2230 ha         1 NG4       0.113500
     73 H371        -3.9060     2.4120     3.2870 ha         1 NG4       0.109000
     74 H391         6.7570    -4.6110    -0.9680 h1         1 NG4       0.096700
     75 H401         6.7690    -3.3330    -3.0570 h1         1 NG4       0.026200
     76 H402         8.0810    -2.2950    -2.4720 h1         1 NG4       0.026200
     77 H191        -2.8690    -0.0960     1.5000 hn         1 NG4       0.328500
     78 H171         0.7130    -0.2400     1.9230 ho         1 NG4       0.450000
     79 H381         9.0990    -4.0950    -0.7080 ho         1 NG4       0.442000
     80 H411         8.8260    -4.0580    -3.8200 ho         1 NG4       0.447000
     81 H241        -5.6850    -0.4590    -2.3510 h1         1 NG4       0.068200
@<TRIPOS>BOND
     1     1    14 1   
     2     1    42 1   
     3     1    43 1   
     4     1    44 1   
     5     2    16 1   
     6     2    30 1   
     7     2    45 1   
     8     2    46 1   
     9     3    31 1   
    10     3    35 2   
    11     3    36 1   
    12     4    18 1   
    13     4    37 1   
    14     4    47 1   
    15     4    81 1   
    16     5     6 1   
    17     5    18 1   
    18     5    19 1   
    19     5    48 1   
    20     6    20 1   
    21     6    49 1   
    22     6    50 1   
    23     7     8 ar  
    24     7    12 ar  
    25     7    28 1   
    26     8     9 ar  
    27     8    51 1   
    28     9    10 ar  
    29     9    52 1   
    30    10    11 ar  
    31    10    41 1   
    32    11    12 ar  
    33    11    53 1   
    34    12    54 1   
    35    13    14 1   
    36    13    30 1   
    37    13    55 1   
    38    13    56 1   
    39    14    15 1   
    40    14    57 1   
    41    15    58 1   
    42    15    59 1   
    43    15    60 1   
    44    16    17 1   
    45    16    34 1   
    46    16    61 1   
    47    17    21 1   
    48    17    31 1   
    49    17    62 1   
    50    18    36 1   
    51    18    63 1   
    52    19    37 1   
    53    19    38 1   
    54    19    64 1   
    55    20    38 1   
    56    20    65 1   
    57    20    66 1   
    58    21    22 1   
    59    21    67 1   
    60    21    68 1   
    61    22    23 ar  
    62    22    27 ar  
    63    23    24 ar  
    64    23    69 1   
    65    24    25 ar  
    66    24    70 1   
    67    25    26 ar  
    68    25    71 1   
    69    26    27 ar  
    70    26    72 1   
    71    27    73 1   
    72    28    29 1   
    73    28    39 1   
    74    28    74 1   
    75    29    40 1   
    76    29    75 1   
    77    29    76 1   
    78    30    41 1   
    79    31    77 1   
    80    32    41 2   
    81    33    41 2   
    82    34    78 1   
    83    39    79 1   
    84    40    80 1   
@<TRIPOS>SUBSTRUCTURE
     1 NG4         1 TEMP              0 ****  ****    0 ROOT
