@<TRIPOS>MOLECULE
NG5
   62    67     1     0     0
SMALL
bcc


@<TRIPOS>ATOM
      1 FBH         49.1350    -4.5770   178.5750 f          1 NG5      -0.119900
      2 CBG         50.0410    -5.0850   177.7380 ca         1 NG5       0.178900
      3 CBI         51.1120    -5.7980   178.2320 ca         1 NG5      -0.173000
      4 CBJ         52.0410    -6.3110   177.3350 ca         1 NG5      -0.098000
      5 CBK         51.8900    -6.1130   175.9700 ca         1 NG5      -0.148000
      6 CBL         50.8050    -5.3920   175.4920 ca         1 NG5      -0.088000
      7 CBF         49.8770    -4.8720   176.3790 ca         1 NG5      -0.034200
      8 NBE         48.8100    -4.0630   175.9170 na         1 NG5      -0.259800
      9 CAJ         47.4960    -4.3580   175.7010 cc         1 NG5       0.367500
     10 CAG         46.8610    -5.6520   175.9310 ca         1 NG5       0.329300
     11 CAF         45.6020    -5.9190   175.4080 ca         1 NG5      -0.153300
     12 CAE         45.0160    -7.1500   175.6500 ca         1 NG5      -0.195000
     13 NAH         47.5260    -6.5450   176.6600 nb         1 NG5      -0.640000
     14 CAI         46.9790    -7.7180   176.8900 ca         1 NG5       0.374200
     15 CAD         45.7150    -8.0840   176.4090 ca         1 NG5       0.043800
     16 OAC         45.2850    -9.3100   176.7220 os         1 NG5      -0.314900
     17 CAB         43.9930    -9.7180   176.2770 c3         1 NG5       0.139400
     18 CAA         43.7520   -11.1260   176.7650 c3         1 NG5      -0.095100
     19 NAK         46.8910    -3.2980   175.2420 nd         1 NG5      -0.362000
     20 NAL         47.7950    -2.2950   175.1540 nd         1 NG5      -0.350000
     21 CAM         48.9440    -2.7530   175.5600 cc         1 NG5       0.411800
     22 CAN         50.2300    -2.0320   175.6220 cy         1 NG5      -0.123000
     23 CAQ         51.1840    -2.1070   174.4040 cy         1 NG5      -0.091900
     24 CAO         50.2450    -0.5020   175.4650 cy         1 NG5      -0.091900
     25 CAP         51.5680    -0.6440   174.6780 cy         1 NG5       0.106700
     26 NAR         52.7400    -0.6030   175.5180 ns         1 NG5      -0.559900
     27 CAS         53.2190     0.5250   176.0430 c          1 NG5       0.675700
     28 OAT         52.7750     1.6350   175.7810 o          1 NG5      -0.611100
     29 CAU         54.3870     0.3810   176.9900 ca         1 NG5      -0.157900
     30 CAV         54.8710    -0.8450   177.5390 ca         1 NG5       0.317300
     31 NAW         54.3030    -2.0270   177.2100 nb         1 NG5      -0.698000
     32 CAX         54.7540    -3.1290   177.7470 ca         1 NG5       0.437200
     33 CAY         55.8220    -3.1660   178.6640 ca         1 NG5      -0.251300
     34 CAZ         56.4240    -1.9910   179.0070 ca         1 NG5      -0.113300
     35 CBA         55.9580    -0.7820   178.4450 ca         1 NG5       0.281300
     36 NBB         56.5650     0.3720   178.7940 nb         1 NG5      -0.640000
     37 CBC         56.1110     1.4770   178.2700 ca         1 NG5       0.412200
     38 CBD         55.0250     1.5300   177.3740 ca         1 NG5      -0.184300
     39 HBI         51.2190    -5.9480   179.2980 ha         1 NG5       0.155000
     40 HBJ         52.8880    -6.8700   177.7120 ha         1 NG5       0.136000
     41 HBK         52.6140    -6.5180   175.2770 ha         1 NG5       0.141000
     42 HBL         50.6750    -5.2290   174.4300 ha         1 NG5       0.149000
     43 HAG         45.0840    -5.1790   174.8140 ha         1 NG5       0.166000
     44 HAF         44.0370    -7.3580   175.2420 ha         1 NG5       0.145000
     45 HAI         47.5470    -8.4230   177.4890 h4         1 NG5       0.034100
     46 HAD         43.2320    -9.0380   176.6720 h1         1 NG5       0.037700
     47 HAE         43.9440    -9.6770   175.1850 h1         1 NG5       0.037700
     48 HAC         42.7670   -11.4550   176.4380 hc         1 NG5       0.050033
     49 HAA         44.4890   -11.8200   176.3610 hc         1 NG5       0.050033
     50 HAB         43.7790   -11.1810   177.8540 hc         1 NG5       0.050033
     51 HAN         50.7620    -2.3260   176.5310 hc         1 NG5       0.072700
     52 HAS         50.6280    -2.1970   173.4710 hc         1 NG5       0.070450
     53 HAR         51.9770    -2.8550   174.4180 hc         1 NG5       0.070450
     54 HAP         50.2520     0.1000   176.3720 hc         1 NG5       0.070450
     55 HAO         49.4420    -0.1580   174.8140 hc         1 NG5       0.070450
     56 HAQ         51.6930     0.0080   173.8120 h1         1 NG5       0.086700
     57 HBM         53.1440    -1.4710   175.8650 hn         1 NG5       0.357500
     58 HAX         54.2610    -4.0490   177.4530 h4         1 NG5       0.022100
     59 HAY         56.1450    -4.1120   179.0750 ha         1 NG5       0.149000
     60 HAZ         57.2520    -1.9560   179.7030 ha         1 NG5       0.159000
     61 HBC         56.6090     2.3980   178.5530 h4         1 NG5       0.029100
     62 HBD         54.7030     2.4900   176.9960 ha         1 NG5       0.173000
@<TRIPOS>BOND
     1     1     2 1   
     2     2     3 ar  
     3     2     7 ar  
     4     3     4 ar  
     5     3    39 1   
     6     4     5 ar  
     7     4    40 1   
     8     5     6 ar  
     9     5    41 1   
    10     6     7 ar  
    11     6    42 1   
    12     7     8 1   
    13     8     9 1   
    14     8    21 1   
    15     9    10 1   
    16     9    19 2   
    17    10    11 ar  
    18    10    13 ar  
    19    11    12 ar  
    20    11    43 1   
    21    12    15 ar  
    22    12    44 1   
    23    13    14 ar  
    24    14    15 ar  
    25    14    45 1   
    26    15    16 1   
    27    16    17 1   
    28    17    18 1   
    29    17    46 1   
    30    17    47 1   
    31    18    48 1   
    32    18    49 1   
    33    18    50 1   
    34    19    20 1   
    35    20    21 2   
    36    21    22 1   
    37    22    23 1   
    38    22    24 1   
    39    22    51 1   
    40    23    25 1   
    41    23    52 1   
    42    23    53 1   
    43    24    25 1   
    44    24    54 1   
    45    24    55 1   
    46    25    26 1   
    47    25    56 1   
    48    26    27 1   
    49    26    57 1   
    50    27    28 2   
    51    27    29 1   
    52    29    30 ar  
    53    29    38 ar  
    54    30    31 ar  
    55    30    35 ar  
    56    31    32 ar  
    57    32    33 ar  
    58    32    58 1   
    59    33    34 ar  
    60    33    59 1   
    61    34    35 ar  
    62    34    60 1   
    63    35    36 ar  
    64    36    37 ar  
    65    37    38 ar  
    66    37    61 1   
    67    38    62 1   
@<TRIPOS>SUBSTRUCTURE
     1 NG5         1 TEMP              0 ****  ****    0 ROOT
