@<TRIPOS>MOLECULE
NG5
   62    67     1     0     0
SMALL
No Charge or Current Charge


@<TRIPOS>ATOM
      1 FBH         49.3200    -4.5140   178.3480 f          1 NG5      -0.155000
      2 CBG         50.1540    -5.0750   177.4410 ca         1 NG5       0.214000
      3 CBI         51.2430    -5.8380   177.8920 ca         1 NG5      -0.155000
      4 CBJ         52.1310    -6.4120   176.9660 ca         1 NG5      -0.080000
      5 CBK         51.9270    -6.2180   175.5890 ca         1 NG5      -0.130000
      6 CBL         50.8370    -5.4530   175.1350 ca         1 NG5      -0.070000
      7 CBF         49.9420    -4.8790   176.0580 ca         1 NG5      -0.034200
      8 NBE         48.8860    -4.0910   175.5950 na         1 NG5      -0.259800
      9 CAJ         47.5440    -4.4170   175.6310 cc         1 NG5       0.367500
     10 CAG         46.9300    -5.7520   175.8840 ca         1 NG5       0.264000
     11 CAF         45.5180    -5.8690   175.9140 ca         1 NG5      -0.070000
     12 CAE         44.9080    -7.1170   176.1440 ca         1 NG5      -0.177000
     13 NAH         47.7220    -6.8480   176.0720 nb         1 NG5      -0.640000
     14 CAI         47.1350    -8.0510   176.2950 ca         1 NG5       0.308900
     15 CAD         45.7370    -8.2400   176.3410 ca         1 NG5       0.109100
     16 OAC         45.2340    -9.5080   176.5750 os         1 NG5      -0.338100
     17 CAB         43.8220    -9.7710   176.6360 c3         1 NG5       0.162600
     18 CAA         43.6420   -11.2720   176.9100 c3         1 NG5      -0.095100
     19 NAK         46.8740    -3.2990   175.3620 nd         1 NG5      -0.362000
     20 NAL         47.7780    -2.2650   175.2070 nd         1 NG5      -0.350000
     21 CAM         49.0010    -2.7450   175.3780 cc         1 NG5       0.411800
     22 CAN         50.2580    -1.9240   175.3570 cy         1 NG5      -0.123000
     23 CAQ         51.2490    -1.9930   174.1420 cy         1 NG5      -0.091900
     24 CAO         50.2660    -0.3780   175.0830 cy         1 NG5      -0.091900
     25 CAP         51.7430    -0.5800   174.6000 cy         1 NG5       0.106700
     26 NAR         52.8000    -0.5330   175.5730 ns         1 NG5      -0.492900
     27 CAS         53.4460     0.6000   176.0020 c          1 NG5       0.608700
     28 OAT         53.1730     1.6900   175.5120 o          1 NG5      -0.611100
     29 CAU         54.4950     0.4530   177.0960 ca         1 NG5      -0.092600
     30 CAV         54.8120    -0.7700   177.7660 ca         1 NG5       0.252000
     31 NAW         54.1760    -1.9390   177.4690 nb         1 NG5      -0.698000
     32 CAX         54.5040    -3.0710   178.1320 ca         1 NG5       0.371900
     33 CAY         55.4850    -3.1010   179.1260 ca         1 NG5      -0.168000
     34 CAZ         56.1560    -1.9140   179.4530 ca         1 NG5      -0.030000
     35 CBA         55.8330    -0.7200   178.7800 ca         1 NG5       0.216000
     36 NBB         56.4960     0.4130   179.1210 nb         1 NG5      -0.640000
     37 CBC         56.1820     1.5550   178.4790 ca         1 NG5       0.346900
     38 CBD         55.2050     1.6160   177.4810 ca         1 NG5      -0.101000
     39 HBI         51.3980    -5.9800   178.9590 ha         1 NG5       0.137000
     40 HBJ         52.9760    -7.0030   177.3140 ha         1 NG5       0.118000
     41 HBK         52.6150    -6.6600   174.8710 ha         1 NG5       0.123000
     42 HBL         50.6890    -5.3050   174.0680 ha         1 NG5       0.131000
     43 HAG         44.8930    -4.9920   175.7600 ha         1 NG5       0.148000
     44 HAF         43.8240    -7.1880   176.1660 ha         1 NG5       0.127000
     45 HAI         47.8090    -8.8940   176.4410 h4         1 NG5       0.034100
     46 HAD         43.3520    -9.1930   177.4430 h1         1 NG5       0.037700
     47 HAE         43.3360    -9.5120   175.6860 h1         1 NG5       0.037700
     48 HAC         42.5760   -11.5220   176.9650 hc         1 NG5       0.050033
     49 HAA         44.0950   -11.8680   176.1080 hc         1 NG5       0.050033
     50 HAB         44.1100   -11.5500   177.8620 hc         1 NG5       0.050033
     51 HAN         50.7350    -2.1770   176.3120 hc         1 NG5       0.072700
     52 HAS         50.7650    -2.0100   173.1570 hc         1 NG5       0.070450
     53 HAR         51.9940    -2.7950   174.1740 hc         1 NG5       0.070450
     54 HAP         50.1320     0.2660   175.9590 hc         1 NG5       0.070450
     55 HAO         49.5730    -0.0440   174.3000 hc         1 NG5       0.070450
     56 HAQ         52.0220     0.0700   173.7610 h1         1 NG5       0.086700
     57 HBM         53.0910    -1.3830   176.0500 hn         1 NG5       0.357500
     58 HAX         53.9620    -3.9740   177.8530 h4         1 NG5       0.022100
     59 HAY         55.7180    -4.0330   179.6340 ha         1 NG5       0.131000
     60 HAZ         56.9220    -1.9130   180.2240 ha         1 NG5       0.141000
     61 HBC         56.7310     2.4480   178.7760 h4         1 NG5       0.029100
     62 HBD         55.0090     2.5750   177.0090 ha         1 NG5       0.155000
@<TRIPOS>BOND
     1     1     2 1   
     2     2     3 ar  
     3     2     7 ar  
     4     3     4 ar  
     5     3    39 1   
     6     4     5 ar  
     7     4    40 1   
     8     5     6 ar  
     9     5    41 1   
    10     6     7 ar  
    11     6    42 1   
    12     7     8 1   
    13     8     9 1   
    14     8    21 1   
    15     9    10 1   
    16     9    19 2   
    17    10    11 ar  
    18    10    13 ar  
    19    11    12 ar  
    20    11    43 1   
    21    12    15 ar  
    22    12    44 1   
    23    13    14 ar  
    24    14    15 ar  
    25    14    45 1   
    26    15    16 1   
    27    16    17 1   
    28    17    18 1   
    29    17    46 1   
    30    17    47 1   
    31    18    48 1   
    32    18    49 1   
    33    18    50 1   
    34    19    20 1   
    35    20    21 2   
    36    21    22 1   
    37    22    23 1   
    38    22    24 1   
    39    22    51 1   
    40    23    25 1   
    41    23    52 1   
    42    23    53 1   
    43    24    25 1   
    44    24    54 1   
    45    24    55 1   
    46    25    26 1   
    47    25    56 1   
    48    26    27 1   
    49    26    57 1   
    50    27    28 2   
    51    27    29 1   
    52    29    30 ar  
    53    29    38 ar  
    54    30    31 ar  
    55    30    35 ar  
    56    31    32 ar  
    57    32    33 ar  
    58    32    58 1   
    59    33    34 ar  
    60    33    59 1   
    61    34    35 ar  
    62    34    60 1   
    63    35    36 ar  
    64    36    37 ar  
    65    37    38 ar  
    66    37    61 1   
    67    38    62 1   
@<TRIPOS>SUBSTRUCTURE
     1 NG5         1 TEMP              0 ****  ****    0 ROOT
