@<TRIPOS>MOLECULE
NG6
   33    33     1     0     0
SMALL
No Charge or Current Charge


@<TRIPOS>ATOM
      1 C1          33.3970    27.3880    45.5460 c6         1 NG6       0.391300
      2 C2          32.6090    27.8930    46.8010 c6         1 NG6       0.081700
      3 C3          31.0800    27.7630    46.5110 c6         1 NG6       0.162300
      4 C4          30.6950    28.4770    45.1780 c6         1 NG6       0.107300
      5 C5          31.6050    27.9290    44.0320 c6         1 NG6       0.146300
      6 C6          31.3300    28.6340    42.6690 c3         1 NG6       0.220600
      7 C7          33.9380    27.5540    48.9460 c          1 NG6       0.613100
      8 C8          34.1570    26.5850    50.1020 c3         1 NG6      -0.180100
      9 N2          32.9820    27.1600    48.0400 ns         1 NG6      -0.491900
     10 O1          34.7880    27.6160    45.6610 oh         1 NG6      -0.633000
     11 O3          30.3050    28.3090    47.5960 oh         1 NG6      -0.634000
     12 O4          30.8260    29.9040    45.3440 oh         1 NG6      -0.694000
     13 O5          33.0020    28.1110    44.3770 os         1 NG6      -0.440000
     14 O6          31.9470    27.8860    41.6030 os         1 NG6      -0.588700
     15 O7          34.5560    28.6040    48.8420 o          1 NG6      -0.597100
     16 S           31.7350    28.4850    40.0910 s6         1 NG6       1.498300
     17 O1S         32.4640    27.5390    39.2340 o          1 NG6      -0.708200
     18 O2S         30.2770    28.4750    39.9030 o          1 NG6      -0.708200
     19 O3S         32.3250    29.8300    40.1490 o          1 NG6      -0.708200
     20 H1          33.2120    26.3150    45.3910 h2         1 NG6      -0.000300
     21 H2          32.8460    28.9580    46.9330 h1         1 NG6       0.136700
     22 H3          30.8470    26.6930    46.4030 h1         1 NG6       0.017700
     23 H4          29.6510    28.2280    44.9400 h1         1 NG6       0.031700
     24 H5          31.4070    26.8540    43.9040 h1         1 NG6       0.044700
     25 H61         30.2430    28.6860    42.5250 h1         1 NG6       0.041200
     26 H62         31.7180    29.6600    42.7160 h1         1 NG6       0.041200
     27 H81         34.9180    26.9340    50.8090 hc         1 NG6       0.052033
     28 H82         33.1980    26.4000    50.5990 hc         1 NG6       0.052033
     29 H83         34.4030    25.5960    49.6980 hc         1 NG6       0.052033
     30 HN2         32.5140    26.2840    48.2370 hn         1 NG6       0.297500
     31 HO1         35.0450    27.9010    44.7600 ho         1 NG6       0.457000
     32 HO3         29.4700    27.7920    47.6420 ho         1 NG6       0.435000
     33 HO4         30.5060    30.0860    46.2600 ho         1 NG6       0.506000
@<TRIPOS>BOND
     1     1     2 1   
     2     1    10 1   
     3     1    13 1   
     4     1    20 1   
     5     2     3 1   
     6     2     9 1   
     7     2    21 1   
     8     3     4 1   
     9     3    11 1   
    10     3    22 1   
    11     4     5 1   
    12     4    12 1   
    13     4    23 1   
    14     5     6 1   
    15     5    13 1   
    16     5    24 1   
    17     6    14 1   
    18     6    25 1   
    19     6    26 1   
    20     7     8 1   
    21     7     9 1   
    22     7    15 2   
    23     8    27 1   
    24     8    28 1   
    25     8    29 1   
    26     9    30 1   
    27    10    31 1   
    28    11    32 1   
    29    12    33 1   
    30    14    16 1   
    31    16    17 1   
    32    16    18 1   
    33    16    19 1   
@<TRIPOS>SUBSTRUCTURE
     1 NG6         1 TEMP              0 ****  ****    0 ROOT
