@<TRIPOS>MOLECULE
NG6
   33    33     1     0     0
SMALL
bcc


@<TRIPOS>ATOM
      1 C1          33.4920    27.5650    45.5150 c6         1 NG6       0.344900
      2 C2          32.6940    27.9080    46.7780 c6         1 NG6       0.081700
      3 C3          31.1990    27.7440    46.5080 c6         1 NG6       0.139100
      4 C4          30.7890    28.5300    45.2610 c6         1 NG6       0.084100
      5 C5          31.6790    28.0710    44.1040 c6         1 NG6       0.123100
      6 C6          31.3540    28.7790    42.8080 c3         1 NG6       0.197400
      7 C7          33.6780    27.5120    49.0040 c          1 NG6       0.680100
      8 C8          34.0320    26.4390    50.0050 c3         1 NG6      -0.180100
      9 N2          33.1120    27.0660    47.8680 ns         1 NG6      -0.558900
     10 O1          34.8150    27.8800    45.7360 oh         1 NG6      -0.570800
     11 O3          30.5040    28.1310    47.6610 oh         1 NG6      -0.571800
     12 O4          30.9240    29.9050    45.5230 oh         1 NG6      -0.571800
     13 O5          33.0340    28.3100    44.4160 os         1 NG6      -0.393600
     14 O6          32.0570    28.1300    41.7600 os         1 NG6      -0.565500
     15 O7          33.8980    28.6940    49.2300 o          1 NG6      -0.597100
     16 S           31.5050    28.3750    40.2270 s6         1 NG6       1.498300
     17 O1S         32.4360    27.5520    39.4610 o          1 NG6      -0.708200
     18 O2S         30.1250    27.8860    40.2270 o          1 NG6      -0.708200
     19 O3S         31.6220    29.8170    40.0000 o          1 NG6      -0.708200
     20 H1          33.3620    26.4890    45.2970 h2         1 NG6      -0.000300
     21 H2          32.9030    28.9440    47.0530 h1         1 NG6       0.136700
     22 H3          31.0150    26.6820    46.2780 h1         1 NG6       0.017700
     23 H4          29.7480    28.2690    45.0190 h1         1 NG6       0.031700
     24 H5          31.4990    26.9940    43.9570 h1         1 NG6       0.044700
     25 H61         30.2710    28.7230    42.6520 h1         1 NG6       0.041200
     26 H62         31.6340    29.8350    42.8680 h1         1 NG6       0.041200
     27 H81         35.0910    26.5120    50.2530 hc         1 NG6       0.052033
     28 H82         33.4730    26.6050    50.9260 hc         1 NG6       0.052033
     29 H83         33.8280    25.4280    49.6570 hc         1 NG6       0.052033
     30 HN2         32.9480    26.0750    47.7740 hn         1 NG6       0.297500
     31 HO1         35.3660    27.4180    45.0960 ho         1 NG6       0.418000
     32 HO3         29.5830    27.8670    47.5660 ho         1 NG6       0.396000
     33 HO4         30.3260    30.3950    44.9530 ho         1 NG6       0.407000
@<TRIPOS>BOND
     1     1     2 1   
     2     1    10 1   
     3     1    13 1   
     4     1    20 1   
     5     2     3 1   
     6     2     9 1   
     7     2    21 1   
     8     3     4 1   
     9     3    11 1   
    10     3    22 1   
    11     4     5 1   
    12     4    12 1   
    13     4    23 1   
    14     5     6 1   
    15     5    13 1   
    16     5    24 1   
    17     6    14 1   
    18     6    25 1   
    19     6    26 1   
    20     7     8 1   
    21     7     9 1   
    22     7    15 2   
    23     8    27 1   
    24     8    28 1   
    25     8    29 1   
    26     9    30 1   
    27    10    31 1   
    28    11    32 1   
    29    12    33 1   
    30    14    16 1   
    31    16    17 1   
    32    16    18 1   
    33    16    19 1   
@<TRIPOS>SUBSTRUCTURE
     1 NG6         1 TEMP              0 ****  ****    0 ROOT
