@<TRIPOS>MOLECULE
NG7
   74    79     1     0     0
SMALL
No Charge or Current Charge


@<TRIPOS>ATOM
      1 C           -6.4400    -2.1480     1.3160 c3         1 NG7       0.355300
      2 F1          -6.0710    -3.4500     1.3380 f          1 NG7      -0.112667
      3 N           -9.1520     2.1610    -2.4250 n3         1 NG7      -0.722600
      4 S            6.6810     1.3120     0.1070 ss         1 NG7      -0.054500
      5 C01          6.9650    -2.4480    -0.9730 ca         1 NG7      -0.034000
      6 F3          -7.3950    -2.0490     0.3640 f          1 NG7      -0.112667
      7 N01          4.9210    -0.7780     0.0420 nb         1 NG7      -0.622000
      8 O01          8.5730     3.6440     0.1830 o          1 NG7      -0.566100
      9 C02          7.2200    -1.1010    -0.6820 ca         1 NG7       0.081400
     10 F2          -7.0360    -1.9080     2.5070 f          1 NG7      -0.112667
     11 N02          8.4560    -0.4800    -0.8620 nc         1 NG7      -0.605100
     12 C03          6.1760    -0.3330    -0.1880 ca         1 NG7       0.330300
     13 N03          9.3760     1.6230    -0.5580 ns         1 NG7      -0.398400
     14 C04          4.6540    -2.0800    -0.2220 cp         1 NG7       0.398500
     15 C05          5.6650    -2.9390    -0.7410 ca         1 NG7      -0.147000
     16 N05         -7.5960     0.9120    -0.1780 n3         1 NG7      -0.713600
     17 C06          8.2910     0.7910    -0.4790 cd         1 NG7       0.440800
     18 C07          9.4860     2.9520    -0.2390 c          1 NG7       0.642100
     19 C08         10.8700     3.5060    -0.4690 cx         1 NG7      -0.251700
     20 C09         11.5010     4.3760     0.6030 cx         1 NG7      -0.088900
     21 C10         12.0200     2.9770     0.3680 cx         1 NG7      -0.088900
     22 C11          3.2490    -2.5510     0.0460 cp         1 NG7      -0.148500
     23 C12          2.9590    -3.9200     0.2750 ca         1 NG7      -0.072000
     24 C13          1.6480    -4.3510     0.5240 ca         1 NG7      -0.123000
     25 C14          0.5890    -3.4310     0.5540 ca         1 NG7      -0.078000
     26 C15          0.8330    -2.0540     0.3360 ca         1 NG7      -0.165600
     27 C16          2.1620    -1.6350     0.0870 ca         1 NG7      -0.018000
     28 C17         -0.2800    -1.0210     0.3600 c          1 NG7       0.623700
     29 C18         -2.8290    -0.8840     0.7200 ca         1 NG7      -0.020000
     30 C19         -3.0250     0.5070     0.6260 ca         1 NG7      -0.103000
     31 C20         -4.3130     1.0460     0.7470 ca         1 NG7      -0.094000
     32 C21         -5.4360     0.2210     0.9590 ca         1 NG7      -0.053300
     33 C22         -5.2550    -1.1880     1.0630 ca         1 NG7      -0.141300
     34 C23         -3.9440    -1.7120     0.9400 ca         1 NG7      -0.130000
     35 C25         -8.9810     1.4390     0.0170 c6         1 NG7       0.132300
     36 C26         -9.8170     1.4140    -1.3050 c6         1 NG7       0.166800
     37 C27         -7.7790     1.5930    -2.6230 c6         1 NG7       0.166800
     38 C28         -6.9190     1.6140    -1.3140 c6         1 NG7       0.132300
     39 C30        -10.5410     4.2900    -2.2580 c3         1 NG7      -0.090100
     40 H01          7.7470    -3.0910    -1.3700 ha         1 NG7       0.136000
     41 HN03        10.2320     1.2160    -0.9000 hn         1 NG7       0.342500
     42 HN04        -1.5900    -2.5140     0.7450 hn         1 NG7       0.157000
     43 H05          5.4410    -3.9740    -0.9760 ha         1 NG7       0.126000
     44 H08         11.0890     3.7690    -1.5010 hc         1 NG7       0.093700
     45 H09         12.1230     5.2080     0.2810 hc         1 NG7       0.086450
     46 H09A        10.9390     4.5590     1.5170 hc         1 NG7       0.086450
     47 H10         11.8090     2.2290     1.1300 hc         1 NG7       0.086450
     48 H10A        12.9920     2.8720    -0.1100 hc         1 NG7       0.086450
     49 H12          3.7540    -4.6620     0.2780 ha         1 NG7       0.117000
     50 H13          1.4510    -5.4060     0.6990 ha         1 NG7       0.120000
     51 H14         -0.4110    -3.8090     0.7500 ha         1 NG7       0.116000
     52 H16          2.3560    -0.5780    -0.0870 ha         1 NG7       0.155000
     53 H19         -2.1970     1.1900     0.4640 ha         1 NG7       0.152000
     54 H20         -4.4420     2.1240     0.6700 ha         1 NG7       0.118000
     55 H23         -3.7770    -2.7850     1.0170 ha         1 NG7       0.127000
     56 H24         -6.6530     1.9380     1.4170 h1         1 NG7       0.044200
     57 H24A        -7.3820     0.4170     1.8750 h1         1 NG7       0.044200
     58 H25         -9.5080     0.8390     0.7730 h1         1 NG7       0.034200
     59 H25A        -8.9450     2.4700     0.3990 h1         1 NG7       0.034200
     60 H26        -10.8240     1.8040    -1.1040 h1         1 NG7       0.059450
     61 H26A        -9.9520     0.3610    -1.5960 h1         1 NG7       0.059450
     62 H27         -7.8550     0.5500    -2.9630 h1         1 NG7       0.059450
     63 H27A        -7.2430     2.1390    -3.4130 h1         1 NG7       0.059450
     64 H28         -6.7050     2.6570    -1.0420 h1         1 NG7       0.034200
     65 H28A        -5.9540     1.1380    -1.5360 h1         1 NG7       0.034200
     66 H29         -8.6220     3.9280    -1.3420 h1         1 NG7       0.026700
     67 H29A        -8.5820     4.0840    -3.0970 h1         1 NG7       0.026700
     68 H30        -10.4450     5.3820    -2.2690 hc         1 NG7       0.036033
     69 H30A       -11.1130     3.9880    -3.1430 hc         1 NG7       0.036033
     70 H30B       -11.1060     4.0140    -1.3610 hc         1 NG7       0.036033
     71 C24         -6.8070     0.9040     1.0780 c3         1 NG7       0.211100
     72 N04         -1.5560    -1.5130     0.6120 ns         1 NG7      -0.144000
     73 C29         -9.1430     3.6390    -2.2640 c3         1 NG7       0.170800
     74 O           -0.0440     0.1670     0.1640 o          1 NG7      -0.571100
@<TRIPOS>BOND
     1     1     2 1   
     2     1     6 1   
     3     1    10 1   
     4     1    33 1   
     5     3    36 1   
     6     3    37 1   
     7     3    73 1   
     8     4    12 1   
     9     4    17 1   
    10     5     9 ar  
    11     5    15 ar  
    12     5    40 1   
    13     7    12 ar  
    14     7    14 ar  
    15     8    18 2   
    16     9    11 1   
    17     9    12 ar  
    18    11    17 2   
    19    13    17 1   
    20    13    18 1   
    21    13    41 1   
    22    14    15 ar  
    23    14    22 1   
    24    15    43 1   
    25    16    35 1   
    26    16    38 1   
    27    16    71 1   
    28    18    19 1   
    29    19    20 1   
    30    19    21 1   
    31    19    44 1   
    32    20    21 1   
    33    20    45 1   
    34    20    46 1   
    35    21    47 1   
    36    21    48 1   
    37    22    23 ar  
    38    22    27 ar  
    39    23    24 ar  
    40    23    49 1   
    41    24    25 ar  
    42    24    50 1   
    43    25    26 ar  
    44    25    51 1   
    45    26    27 ar  
    46    26    28 1   
    47    27    52 1   
    48    28    72 1   
    49    28    74 2   
    50    29    30 ar  
    51    29    34 ar  
    52    29    72 1   
    53    30    31 ar  
    54    30    53 1   
    55    31    32 ar  
    56    31    54 1   
    57    32    33 ar  
    58    32    71 1   
    59    33    34 ar  
    60    34    55 1   
    61    35    36 1   
    62    35    58 1   
    63    35    59 1   
    64    36    60 1   
    65    36    61 1   
    66    37    38 1   
    67    37    62 1   
    68    37    63 1   
    69    38    64 1   
    70    38    65 1   
    71    39    68 1   
    72    39    69 1   
    73    39    70 1   
    74    39    73 1   
    75    42    72 1   
    76    56    71 1   
    77    57    71 1   
    78    66    73 1   
    79    67    73 1   
@<TRIPOS>SUBSTRUCTURE
     1 NG7         1 TEMP              0 ****  ****    0 ROOT
