@<TRIPOS>MOLECULE
NG7
   74    79     1     0     0
SMALL
abcg2


@<TRIPOS>ATOM
      1 C           -5.4590    -0.6960     2.2970 c3         1 NG7       0.355300
      2 F1          -5.0540    -1.8760     2.7820 f          1 NG7      -0.112667
      3 N           -9.5410     1.4150    -1.6070 n3         1 NG7      -0.722600
      4 S            6.7410     0.7410     0.3800 ss         1 NG7      -0.054500
      5 C01          6.9260    -2.7220    -1.3930 ca         1 NG7      -0.034000
      6 F3          -6.7080    -0.8740     1.8610 f          1 NG7      -0.112667
      7 N01          4.8900    -1.1140    -0.3270 nb         1 NG7      -0.622000
      8 O01          8.3770     2.7020     1.1780 o          1 NG7      -0.566100
      9 C02          7.2270    -1.4980    -0.8070 ca         1 NG7       0.081400
     10 F2          -5.5280     0.1380     3.3490 f          1 NG7      -0.112667
     11 N02          8.4580    -0.9200    -0.6650 nc         1 NG7      -0.605100
     12 C03          6.1520    -0.7550    -0.3030 ca         1 NG7       0.330300
     13 N03          9.4480     0.9930     0.1780 ns         1 NG7      -0.398400
     14 C04          4.6030    -2.2910    -0.8800 cp         1 NG7       0.398500
     15 C05          5.6000    -3.1120    -1.4280 ca         1 NG7      -0.147000
     16 N05         -7.1710     1.3610     0.0640 n3         1 NG7      -0.713600
     17 C06          8.3490     0.2240    -0.0760 cd         1 NG7       0.440800
     18 C07          9.4260     2.2130     0.8010 c          1 NG7       0.642100
     19 C08         10.7480     2.8460     0.9650 cx         1 NG7      -0.251700
     20 C09         10.8160     4.3540     0.9290 cx         1 NG7      -0.088900
     21 C10         10.9910     3.6500     2.2200 cx         1 NG7      -0.088900
     22 C11          3.1770    -2.6800    -0.9010 cp         1 NG7      -0.148500
     23 C12          2.7860    -4.0180    -0.9750 ca         1 NG7      -0.072000
     24 C13          1.4430    -4.3600    -0.9880 ca         1 NG7      -0.123000
     25 C14          0.4680    -3.3770    -0.9150 ca         1 NG7      -0.078000
     26 C15          0.8430    -2.0370    -0.8330 ca         1 NG7      -0.165600
     27 C16          2.1910    -1.6990    -0.8380 ca         1 NG7      -0.018000
     28 C17         -0.1510    -0.9240    -0.7820 c          1 NG7       0.623700
     29 C18         -2.4360    -0.4240     0.0440 ca         1 NG7      -0.020000
     30 C19         -2.6710     0.7820    -0.6070 ca         1 NG7      -0.103000
     31 C20         -3.8310     1.4870    -0.3220 ca         1 NG7      -0.094000
     32 C21         -4.7870     1.0500     0.5850 ca         1 NG7      -0.053300
     33 C22         -4.5320    -0.1650     1.2380 ca         1 NG7      -0.141300
     34 C23         -3.3770    -0.8810     0.9680 ca         1 NG7      -0.130000
     35 C25         -8.4160     1.9190     0.5570 c6         1 NG7       0.132300
     36 C26         -9.6020     1.2870    -0.1600 c6         1 NG7       0.166800
     37 C27         -8.2610     0.9100    -2.0700 c6         1 NG7       0.166800
     38 C28         -7.0570     1.5310    -1.3710 c6         1 NG7       0.132300
     39 C30        -11.3540     3.0570    -1.9850 c3         1 NG7      -0.090100
     40 H01          7.7030    -3.3450    -1.8160 ha         1 NG7       0.136000
     41 HN03        10.3310     0.5980    -0.1160 hn         1 NG7       0.342500
     42 HN04        -1.3520    -2.1240     0.3150 hn         1 NG7       0.157000
     43 H05          5.3380    -4.0480    -1.9000 ha         1 NG7       0.126000
     44 H08         11.5940     2.3070     0.5570 hc         1 NG7       0.093700
     45 H09         11.6850     4.7790     0.4470 hc         1 NG7       0.086450
     46 H09A         9.8900     4.8870     0.7560 hc         1 NG7       0.086450
     47 H10         10.1890     3.6930     2.9440 hc         1 NG7       0.086450
     48 H10A        11.9840     3.5790     2.6430 hc         1 NG7       0.086450
     49 H12          3.5260    -4.8060    -1.0050 ha         1 NG7       0.117000
     50 H13          1.1550    -5.4000    -1.0540 ha         1 NG7       0.120000
     51 H14         -0.5750    -3.6680    -0.9520 ha         1 NG7       0.116000
     52 H16          2.4820    -0.6580    -0.7850 ha         1 NG7       0.155000
     53 H19         -1.9770     1.1810    -1.3270 ha         1 NG7       0.152000
     54 H20         -3.9990     2.4260    -0.8350 ha         1 NG7       0.118000
     55 H23         -3.1810    -1.8150     1.4780 ha         1 NG7       0.127000
     56 H24         -5.7980     2.9190     0.4870 h1         1 NG7       0.044200
     57 H24A        -6.2910     1.9350     1.8440 h1         1 NG7       0.044200
     58 H25         -8.4980     1.7140     1.6280 h1         1 NG7       0.034200
     59 H25A        -8.4480     3.0170     0.4450 h1         1 NG7       0.034200
     60 H26        -10.5300     1.7210     0.2160 h1         1 NG7       0.059450
     61 H26A        -9.6290     0.2210     0.0870 h1         1 NG7       0.059450
     62 H27         -8.2370    -0.1710    -1.8980 h1         1 NG7       0.059450
     63 H27A        -8.1800     1.0650    -3.1480 h1         1 NG7       0.059450
     64 H28         -6.9580     2.5960    -1.6500 h1         1 NG7       0.034200
     65 H28A        -6.1530     1.0330    -1.7300 h1         1 NG7       0.034200
     66 H29         -9.2930     3.5490    -1.6440 h1         1 NG7       0.026700
     67 H29A        -9.6040     2.7580    -3.1720 h1         1 NG7       0.026700
     68 H30        -11.5760     4.0120    -2.4620 hc         1 NG7       0.036033
     69 H30A       -11.9590     2.2880    -2.4680 hc         1 NG7       0.036033
     70 H30B       -11.6750     3.1340    -0.9460 hc         1 NG7       0.036033
     71 C24         -6.0290     1.8830     0.7860 c3         1 NG7       0.211100
     72 N04         -1.3190    -1.2360    -0.1630 ns         1 NG7      -0.144000
     73 C29         -9.8720     2.7400    -2.1130 c3         1 NG7       0.170800
     74 O            0.0970     0.1710    -1.2530 o          1 NG7      -0.571100
@<TRIPOS>BOND
     1     1     2 1   
     2     1     6 1   
     3     1    10 1   
     4     1    33 1   
     5     3    36 1   
     6     3    37 1   
     7     3    73 1   
     8     4    12 1   
     9     4    17 1   
    10     5     9 ar  
    11     5    15 ar  
    12     5    40 1   
    13     7    12 ar  
    14     7    14 ar  
    15     8    18 2   
    16     9    11 1   
    17     9    12 ar  
    18    11    17 2   
    19    13    17 1   
    20    13    18 1   
    21    13    41 1   
    22    14    15 ar  
    23    14    22 1   
    24    15    43 1   
    25    16    35 1   
    26    16    38 1   
    27    16    71 1   
    28    18    19 1   
    29    19    20 1   
    30    19    21 1   
    31    19    44 1   
    32    20    21 1   
    33    20    45 1   
    34    20    46 1   
    35    21    47 1   
    36    21    48 1   
    37    22    23 ar  
    38    22    27 ar  
    39    23    24 ar  
    40    23    49 1   
    41    24    25 ar  
    42    24    50 1   
    43    25    26 ar  
    44    25    51 1   
    45    26    27 ar  
    46    26    28 1   
    47    27    52 1   
    48    28    72 1   
    49    28    74 2   
    50    29    30 ar  
    51    29    34 ar  
    52    29    72 1   
    53    30    31 ar  
    54    30    53 1   
    55    31    32 ar  
    56    31    54 1   
    57    32    33 ar  
    58    32    71 1   
    59    33    34 ar  
    60    34    55 1   
    61    35    36 1   
    62    35    58 1   
    63    35    59 1   
    64    36    60 1   
    65    36    61 1   
    66    37    38 1   
    67    37    62 1   
    68    37    63 1   
    69    38    64 1   
    70    38    65 1   
    71    39    68 1   
    72    39    69 1   
    73    39    70 1   
    74    39    73 1   
    75    42    72 1   
    76    56    71 1   
    77    57    71 1   
    78    66    73 1   
    79    67    73 1   
@<TRIPOS>SUBSTRUCTURE
     1 NG7         1 TEMP              0 ****  ****    0 ROOT
