@<TRIPOS>MOLECULE
NG9
   67    69     1     0     0
SMALL
abcg2


@<TRIPOS>ATOM
      1 C1          25.0880   -16.3510     1.2320 c3         1 NG9      -0.097850
      2 C2          26.3870   -17.0530     0.8230 c6         1 NG9       0.194000
      3 C3          27.4940   -16.6670     1.8020 c3         1 NG9      -0.097850
      4 C4          26.2730   -18.5780     0.7860 c6         1 NG9      -0.110900
      5 C5          25.3070   -19.1270    -0.2850 c6         1 NG9       0.205200
      6 C6          23.4850   -20.0410     1.2200 ca         1 NG9       0.344000
      7 C10         21.5840   -20.7930     2.5420 ca         1 NG9      -0.054000
      8 C13         23.7040   -20.9430    -2.1380 c6         1 NG9       0.101500
      9 N1          23.9490   -19.2050     0.2390 nu         1 NG9      -0.996200
     10 C7          24.2670   -21.0340     1.8330 ca         1 NG9      -0.193500
     11 C8          23.7110   -21.8980     2.7700 ca         1 NG9      -0.054000
     12 C9          22.3750   -21.7820     3.1160 ca         1 NG9       0.062000
     13 CL2         21.6750   -22.8880     4.2880 cl         1 NG9      -0.221000
     14 C11         22.1350   -19.9330     1.6100 ca         1 NG9      -0.193500
     15 C12         25.7950   -20.5450    -0.7490 c          1 NG9       0.599100
     16 O1          26.8900   -20.9650    -0.3680 o          1 NG9      -0.614100
     17 N2          25.0060   -21.2860    -1.5590 n          1 NG9      -0.403800
     18 C14         22.6210   -21.8970    -1.6390 c6         1 NG9      -0.094400
     19 C15         22.9880   -23.3570    -1.9130 c6         1 NG9      -0.085700
     20 C16         21.9710   -24.3270    -1.3090 c3         1 NG9       0.109000
     21 N3          20.6220   -24.1450    -1.8250 ns         1 NG9      -0.491900
     22 C17         20.2070   -24.6840    -2.9730 c          1 NG9       0.589100
     23 O2          20.8900   -25.4190    -3.6870 o          1 NG9      -0.606100
     24 C18         18.7910   -24.3950    -3.4470 c3         1 NG9       0.037600
     25 C19         24.3900   -23.6560    -1.3790 c6         1 NG9      -0.094400
     26 C20         25.4130   -22.6520    -1.9030 c6         1 NG9       0.101500
     27 C21         25.2930   -18.1650    -1.5040 c6         1 NG9      -0.110900
     28 C22         26.5360   -17.2820    -1.6590 c6         1 NG9       0.194000
     29 C23         27.7780   -18.0880    -2.0520 c3         1 NG9      -0.097850
     30 C24         26.2530   -16.2340    -2.7330 c3         1 NG9      -0.097850
     31 O3          26.8130   -16.5330    -0.4580 os         1 NG9      -0.481000
     32 H1          24.7390   -16.7200     2.1980 hc         1 NG9       0.043950
     33 H2          25.2690   -15.2770     1.3160 hc         1 NG9       0.043950
     34 H3          24.2930   -16.5010     0.5040 hc         1 NG9       0.043950
     35 H4          27.2270   -16.9640     2.8180 hc         1 NG9       0.043950
     36 H5          28.4300   -17.1550     1.5290 hc         1 NG9       0.043950
     37 H6          27.6450   -15.5860     1.7870 hc         1 NG9       0.043950
     38 H7          25.9560   -18.9250     1.7690 hc         1 NG9       0.067200
     39 H8          27.2630   -18.9880     0.6160 hc         1 NG9       0.067200
     40 H9          20.5420   -20.6990     2.8170 ha         1 NG9       0.127000
     41 H11         23.4360   -19.9220    -1.9170 h1         1 NG9       0.056700
     42 H12         23.2930   -18.5240    -0.1040 hn         1 NG9       0.488000
     43 H13         25.3080   -21.1570     1.5810 ha         1 NG9       0.123500
     44 H14         24.3270   -22.6630     3.2220 ha         1 NG9       0.127000
     45 H15         21.5130   -19.1740     1.1510 ha         1 NG9       0.123500
     46 H16         22.4810   -21.7510    -0.5660 hc         1 NG9       0.054200
     47 H17         21.6790   -21.6420    -2.1300 hc         1 NG9       0.054200
     48 H18         22.9970   -23.5110    -2.9980 hc         1 NG9       0.063700
     49 H19         21.9270   -24.1910    -0.2270 h1         1 NG9       0.062700
     50 H20         22.2770   -25.3540    -1.5090 h1         1 NG9       0.062700
     51 H21         19.9940   -23.5310    -1.3310 hn         1 NG9       0.330500
     52 H22         18.8430   -23.9400    -4.4330 h1         1 NG9       0.096200
     53 H23         18.2470   -25.3340    -3.5090 h1         1 NG9       0.096200
     54 CL1         17.8090   -23.2860    -2.4100 cl         1 NG9      -0.281000
     55 H25         24.3830   -23.6130    -0.2850 hc         1 NG9       0.054200
     56 H26         24.6980   -24.6640    -1.6660 hc         1 NG9       0.054200
     57 H27         25.4830   -22.7220    -2.9930 h1         1 NG9       0.056700
     58 H28         26.3950   -22.8340    -1.4830 h1         1 NG9       0.056700
     59 H29         24.4290   -17.5050    -1.4140 hc         1 NG9       0.067200
     60 H30         25.1650   -18.7160    -2.4330 hc         1 NG9       0.067200
     61 H31         28.0320   -18.8370    -1.3060 hc         1 NG9       0.043950
     62 H32         27.6130   -18.5990    -3.0030 hc         1 NG9       0.043950
     63 H33         28.6260   -17.4110    -2.1660 hc         1 NG9       0.043950
     64 H34         25.3830   -15.6350    -2.4610 hc         1 NG9       0.043950
     65 H35         27.1130   -15.5710    -2.8400 hc         1 NG9       0.043950
     66 H36         26.0620   -16.7110    -3.6960 hc         1 NG9       0.043950
     67 H10         23.8010   -21.0350    -3.2260 h1         1 NG9       0.056700
@<TRIPOS>BOND
     1     1     2 1   
     2     1    32 1   
     3     1    33 1   
     4     1    34 1   
     5     2     3 1   
     6     2     4 1   
     7     2    31 1   
     8     3    35 1   
     9     3    36 1   
    10     3    37 1   
    11     4     5 1   
    12     4    38 1   
    13     4    39 1   
    14     5     9 1   
    15     5    15 1   
    16     5    27 1   
    17     6     9 1   
    18     6    10 ar  
    19     6    14 ar  
    20     7    12 ar  
    21     7    14 ar  
    22     7    40 1   
    23     8    17 1   
    24     8    18 1   
    25     8    41 1   
    26     8    67 1   
    27     9    42 1   
    28    10    11 ar  
    29    10    43 1   
    30    11    12 ar  
    31    11    44 1   
    32    12    13 1   
    33    14    45 1   
    34    15    16 2   
    35    15    17 1   
    36    17    26 1   
    37    18    19 1   
    38    18    46 1   
    39    18    47 1   
    40    19    20 1   
    41    19    25 1   
    42    19    48 1   
    43    20    21 1   
    44    20    49 1   
    45    20    50 1   
    46    21    22 1   
    47    21    51 1   
    48    22    23 2   
    49    22    24 1   
    50    24    52 1   
    51    24    53 1   
    52    24    54 1   
    53    25    26 1   
    54    25    55 1   
    55    25    56 1   
    56    26    57 1   
    57    26    58 1   
    58    27    28 1   
    59    27    59 1   
    60    27    60 1   
    61    28    29 1   
    62    28    30 1   
    63    28    31 1   
    64    29    61 1   
    65    29    62 1   
    66    29    63 1   
    67    30    64 1   
    68    30    65 1   
    69    30    66 1   
@<TRIPOS>SUBSTRUCTURE
     1 NG9         1 TEMP              0 ****  ****    0 ROOT
