@<TRIPOS>MOLECULE
NG9
   67    69     1     0     0
SMALL
No Charge or Current Charge


@<TRIPOS>ATOM
      1 C1          25.8730   -15.9200     1.3330 c3         1 NG9      -0.097850
      2 C2          26.8520   -16.9700     0.7240 c6         1 NG9       0.194000
      3 C3          28.2460   -16.7160     1.3610 c3         1 NG9      -0.097850
      4 C4          26.3820   -18.4520     1.0130 c6         1 NG9      -0.110900
      5 C5          25.1670   -18.9530     0.1440 c6         1 NG9       0.205200
      6 C6          23.1850   -19.7880     1.5500 ca         1 NG9       0.344000
      7 C10         21.0520   -20.9360     1.8200 ca         1 NG9      -0.054000
      8 C13         23.4300   -20.8610    -1.7930 c6         1 NG9       0.101500
      9 N1          23.9180   -18.7600     0.9630 nu         1 NG9      -0.996200
     10 C7          23.7760   -20.6850     2.4540 ca         1 NG9      -0.193500
     11 C8          23.0160   -21.7220     3.0240 ca         1 NG9      -0.054000
     12 C9          21.6550   -21.8510     2.7000 ca         1 NG9       0.062000
     13 Cl2         20.7030   -23.1520     3.4030 cl         1 NG9      -0.221000
     14 C11         21.8190   -19.9020     1.2520 ca         1 NG9      -0.193500
     15 C12         25.4200   -20.4920    -0.2750 c          1 NG9       0.599100
     16 O1          26.0430   -21.2570     0.4600 o          1 NG9      -0.614100
     17 N2          24.8760   -21.0160    -1.4740 n          1 NG9      -0.403800
     18 C14         22.6200   -22.1200    -1.4040 c6         1 NG9      -0.094400
     19 C15         23.1970   -23.3960    -2.0720 c6         1 NG9      -0.085700
     20 C16         22.4290   -24.6850    -1.6570 c3         1 NG9       0.109000
     21 N3          20.9910   -24.6230    -1.9370 ns         1 NG9      -0.491900
     22 C17         20.4250   -24.7370    -3.1900 c          1 NG9       0.589100
     23 O2          21.0930   -24.9600    -4.1910 o          1 NG9      -0.606100
     24 C18         18.9020   -24.5560    -3.2290 c3         1 NG9       0.037600
     25 C19         24.7070   -23.5140    -1.7410 c6         1 NG9      -0.094400
     26 C20         25.4700   -22.2200    -2.1120 c6         1 NG9       0.101500
     27 C21         24.9960   -18.0110    -1.1150 c6         1 NG9      -0.110900
     28 C22         26.3360   -17.4540    -1.6730 c6         1 NG9       0.194000
     29 C23         27.3290   -18.5580    -2.1510 c3         1 NG9      -0.097850
     30 C24         26.0680   -16.5150    -2.8820 c3         1 NG9      -0.097850
     31 O3          27.0130   -16.6270    -0.6960 os         1 NG9      -0.481000
     32 H1          25.8240   -16.0160     2.4240 hc         1 NG9       0.043950
     33 H2          26.1990   -14.8970     1.1080 hc         1 NG9       0.043950
     34 H3          24.8510   -16.0240     0.9600 hc         1 NG9       0.043950
     35 H4          28.2250   -16.8800     2.4450 hc         1 NG9       0.043950
     36 H5          29.0020   -17.3880     0.9390 hc         1 NG9       0.043950
     37 H6          28.5860   -15.6880     1.1870 hc         1 NG9       0.043950
     38 H7          26.1610   -18.5690     2.0820 hc         1 NG9       0.067200
     39 H8          27.2510   -19.1010     0.8480 hc         1 NG9       0.067200
     40 H9          19.9960   -21.0320     1.5760 ha         1 NG9       0.127000
     41 H11         23.0030   -19.9950    -1.2720 h1         1 NG9       0.056700
     42 H12         23.3320   -17.9740     0.6840 hn         1 NG9       0.488000
     43 H13         24.8240   -20.5810     2.7150 ha         1 NG9       0.123500
     44 H14         23.4790   -22.4230     3.7150 ha         1 NG9       0.127000
     45 H15         21.3500   -19.2020     0.5670 ha         1 NG9       0.123500
     46 H16         22.6350   -22.2380    -0.3120 hc         1 NG9       0.054200
     47 H17         21.5700   -21.9730    -1.6900 hc         1 NG9       0.054200
     48 H18         23.0880   -23.3000    -3.1620 hc         1 NG9       0.063700
     49 H19         22.5650   -24.8510    -0.5790 h1         1 NG9       0.062700
     50 H20         22.8590   -25.5480    -2.1850 h1         1 NG9       0.062700
     51 H21         20.3590   -24.4240    -1.1700 hn         1 NG9       0.330500
     52 H22         18.5480   -24.7450    -4.2490 h1         1 NG9       0.096200
     53 H23         18.4430   -25.2780    -2.5440 h1         1 NG9       0.096200
     54 Cl1         18.3640   -22.8780    -2.7350 cl         1 NG9      -0.281000
     55 H25         24.8400   -23.7170    -0.6690 hc         1 NG9       0.054200
     56 H26         25.1480   -24.3660    -2.2770 hc         1 NG9       0.054200
     57 H27         25.4470   -22.0870    -3.2030 h1         1 NG9       0.056700
     58 H28         26.5270   -22.3170    -1.8260 h1         1 NG9       0.056700
     59 H29         24.3570   -17.1530    -0.8720 hc         1 NG9       0.067200
     60 H30         24.4630   -18.5010    -1.9330 hc         1 NG9       0.067200
     61 H31         27.6680   -19.2120    -1.3430 hc         1 NG9       0.043950
     62 H32         26.8680   -19.1960    -2.9150 hc         1 NG9       0.043950
     63 H33         28.2280   -18.1140    -2.5950 hc         1 NG9       0.043950
     64 H34         25.4020   -15.6900    -2.6040 hc         1 NG9       0.043950
     65 H35         26.9980   -16.0740    -3.2620 hc         1 NG9       0.043950
     66 H36         25.5950   -17.0570    -3.7100 hc         1 NG9       0.043950
     67 H10         23.3220   -20.6750    -2.8710 h1         1 NG9       0.056700
@<TRIPOS>BOND
     1     1     2 1   
     2     1    32 1   
     3     1    33 1   
     4     1    34 1   
     5     2     3 1   
     6     2     4 1   
     7     2    31 1   
     8     3    35 1   
     9     3    36 1   
    10     3    37 1   
    11     4     5 1   
    12     4    38 1   
    13     4    39 1   
    14     5     9 1   
    15     5    15 1   
    16     5    27 1   
    17     6     9 1   
    18     6    10 ar  
    19     6    14 ar  
    20     7    12 ar  
    21     7    14 ar  
    22     7    40 1   
    23     8    17 1   
    24     8    18 1   
    25     8    41 1   
    26     8    67 1   
    27     9    42 1   
    28    10    11 ar  
    29    10    43 1   
    30    11    12 ar  
    31    11    44 1   
    32    12    13 1   
    33    14    45 1   
    34    15    16 2   
    35    15    17 1   
    36    17    26 1   
    37    18    19 1   
    38    18    46 1   
    39    18    47 1   
    40    19    20 1   
    41    19    25 1   
    42    19    48 1   
    43    20    21 1   
    44    20    49 1   
    45    20    50 1   
    46    21    22 1   
    47    21    51 1   
    48    22    23 2   
    49    22    24 1   
    50    24    52 1   
    51    24    53 1   
    52    24    54 1   
    53    25    26 1   
    54    25    55 1   
    55    25    56 1   
    56    26    57 1   
    57    26    58 1   
    58    27    28 1   
    59    27    59 1   
    60    27    60 1   
    61    28    29 1   
    62    28    30 1   
    63    28    31 1   
    64    29    61 1   
    65    29    62 1   
    66    29    63 1   
    67    30    64 1   
    68    30    65 1   
    69    30    66 1   
@<TRIPOS>SUBSTRUCTURE
     1 NG9         1 TEMP              0 ****  ****    0 ROOT
