@<TRIPOS>MOLECULE
NGA
   30    30     1     0     0
SMALL
abcg2


@<TRIPOS>ATOM
      1 C1         -12.0540    20.8780    -1.9420 c6         1 NGA       0.386300
      2 C2         -11.7570    19.7020    -1.0040 c6         1 NGA       0.086700
      3 C3         -10.9380    20.1950     0.1900 c6         1 NGA       0.170300
      4 C4          -9.7010    20.9630    -0.2840 c6         1 NGA       0.108300
      5 C5         -10.1640    22.0750    -1.2290 c6         1 NGA       0.149300
      6 C6          -9.0200    22.9100    -1.7630 c3         1 NGA       0.168600
      7 C7         -13.3980    17.8610    -0.9500 c          1 NGA       0.614100
      8 C8         -14.7460    17.4650    -0.3940 c3         1 NGA      -0.181100
      9 N2         -12.9820    19.0860    -0.5680 ns         1 NGA      -0.500900
     10 O1         -12.6700    20.3920    -3.0740 oh         1 NGA      -0.619000
     11 O3         -10.6270    19.0880     0.9900 oh         1 NGA      -0.621000
     12 O4          -8.8230    20.0550    -0.9030 oh         1 NGA      -0.682000
     13 O5         -10.8640    21.5200    -2.3210 os         1 NGA      -0.458000
     14 O6          -9.5500    24.0230    -2.4410 oh         1 NGA      -0.709000
     15 O7         -12.7470    17.1300    -1.6800 o          1 NGA      -0.582100
     16 H1         -12.7000    21.6010    -1.4080 h2         1 NGA       0.001700
     17 H2         -11.1840    18.9540    -1.5580 h1         1 NGA       0.138700
     18 H3         -11.5580    20.9180     0.7440 h1         1 NGA       0.018700
     19 H4          -9.2340    21.4340     0.5940 h1         1 NGA       0.029700
     20 H5         -10.8250    22.7440    -0.6520 h1         1 NGA       0.044700
     21 H61         -8.3970    23.2110    -0.9090 h1         1 NGA       0.027700
     22 H62         -8.3910    22.2970    -2.4210 h1         1 NGA       0.027700
     23 H81        -14.9980    16.4540    -0.6990 hc         1 NGA       0.058367
     24 H82        -14.7490    17.5150     0.6960 hc         1 NGA       0.058367
     25 H83        -15.5230    18.1430    -0.7510 hc         1 NGA       0.058367
     26 HN2        -13.5860    19.6270     0.0330 hn         1 NGA       0.299500
     27 HO1        -13.1150    21.1140    -3.5310 ho         1 NGA       0.456000
     28 HO3        -10.2390    19.4040     1.8120 ho         1 NGA       0.439000
     29 HO4         -7.9360    20.4260    -0.9050 ho         1 NGA       0.500000
     30 HO6         -8.8200    24.5150    -2.8250 ho         1 NGA       0.507000
@<TRIPOS>BOND
     1     1     2 1   
     2     1    10 1   
     3     1    13 1   
     4     1    16 1   
     5     2     3 1   
     6     2     9 1   
     7     2    17 1   
     8     3     4 1   
     9     3    11 1   
    10     3    18 1   
    11     4     5 1   
    12     4    12 1   
    13     4    19 1   
    14     5     6 1   
    15     5    13 1   
    16     5    20 1   
    17     6    14 1   
    18     6    21 1   
    19     6    22 1   
    20     7     8 1   
    21     7     9 1   
    22     7    15 2   
    23     8    23 1   
    24     8    24 1   
    25     8    25 1   
    26     9    26 1   
    27    10    27 1   
    28    11    28 1   
    29    12    29 1   
    30    14    30 1   
@<TRIPOS>SUBSTRUCTURE
     1 NGA         1 TEMP              0 ****  ****    0 ROOT
