@<TRIPOS>MOLECULE
NGA
   30    30     1     0     0
SMALL
No Charge or Current Charge


@<TRIPOS>ATOM
      1 C1         -12.1210    20.8560    -1.8950 c6         1 NGA       0.386300
      2 C2         -11.8040    19.6920    -0.8970 c6         1 NGA       0.086700
      3 C3         -11.0230    20.2860     0.3190 c6         1 NGA       0.170300
      4 C4          -9.7610    21.0680    -0.1570 c6         1 NGA       0.108300
      5 C5         -10.2200    22.1500    -1.1900 c6         1 NGA       0.149300
      6 C6          -9.0420    23.0090    -1.7580 c3         1 NGA       0.168600
      7 C7         -13.5600    17.8530    -1.0360 c          1 NGA       0.614100
      8 C8         -14.8510    17.3530    -0.4000 c3         1 NGA      -0.181100
      9 N2         -13.0280    18.9760    -0.4470 ns         1 NGA      -0.500900
     10 O1         -12.6880    20.3870    -3.1010 oh         1 NGA      -0.619000
     11 O3         -10.6210    19.2500     1.2280 oh         1 NGA      -0.621000
     12 O4          -8.8070    20.1300    -0.7130 oh         1 NGA      -0.682000
     13 O5         -10.9210    21.5240    -2.2930 os         1 NGA      -0.458000
     14 O6          -9.4800    24.0360    -2.6700 oh         1 NGA      -0.709000
     15 O7         -13.0330    17.2910    -1.9840 o          1 NGA      -0.582100
     16 H1         -12.8030    21.5800    -1.4260 h2         1 NGA       0.001700
     17 H2         -11.1460    18.9830    -1.4180 h1         1 NGA       0.138700
     18 H3         -11.6870    20.9900     0.8430 h1         1 NGA       0.018700
     19 H4          -9.3190    21.5790     0.7110 h1         1 NGA       0.029700
     20 H5         -10.9130    22.8410    -0.6860 h1         1 NGA       0.044700
     21 H61         -8.5120    23.4650    -0.9110 h1         1 NGA       0.027700
     22 H62         -8.3350    22.3390    -2.2650 h1         1 NGA       0.027700
     23 H81        -15.2400    16.4520    -0.8880 hc         1 NGA       0.058367
     24 H82        -14.6820    17.1920     0.6700 hc         1 NGA       0.058367
     25 H83        -15.5870    18.1640    -0.4010 hc         1 NGA       0.058367
     26 HN2        -13.5290    19.3420     0.3530 hn         1 NGA       0.299500
     27 HO1        -12.2140    20.9040    -3.7850 ho         1 NGA       0.456000
     28 HO3         -9.7540    18.9430     0.8780 ho         1 NGA       0.439000
     29 HO4         -7.9450    20.5970    -0.8050 ho         1 NGA       0.500000
     30 HO6         -8.6690    24.4670    -3.0290 ho         1 NGA       0.507000
@<TRIPOS>BOND
     1     1     2 1   
     2     1    10 1   
     3     1    13 1   
     4     1    16 1   
     5     2     3 1   
     6     2     9 1   
     7     2    17 1   
     8     3     4 1   
     9     3    11 1   
    10     3    18 1   
    11     4     5 1   
    12     4    12 1   
    13     4    19 1   
    14     5     6 1   
    15     5    13 1   
    16     5    20 1   
    17     6    14 1   
    18     6    21 1   
    19     6    22 1   
    20     7     8 1   
    21     7     9 1   
    22     7    15 2   
    23     8    23 1   
    24     8    24 1   
    25     8    25 1   
    26     9    26 1   
    27    10    27 1   
    28    11    28 1   
    29    12    29 1   
    30    14    30 1   
@<TRIPOS>SUBSTRUCTURE
     1 NGA         1 TEMP              0 ****  ****    0 ROOT
