@<TRIPOS>MOLECULE
NGB
   57    59     1     0     0
SMALL
No Charge or Current Charge


@<TRIPOS>ATOM
      1 O14          2.9450    -5.0890     1.2970 o          1 NGB      -0.403500
      2 N1           3.7050    -4.6080     0.4470 no         1 NGB       0.702200
      3 O13          4.5100    -5.2810    -0.2110 o          1 NGB      -0.403500
      4 C16          3.6510    -3.1320     0.2030 ca         1 NGB      -0.218200
      5 C17          2.7450    -2.3190     0.9230 ca         1 NGB      -0.006500
      6 C15          4.5070    -2.5310    -0.7490 ca         1 NGB      -0.006500
      7 C14          4.4520    -1.1450    -0.9720 ca         1 NGB      -0.184500
      8 C13          3.5510    -0.3390    -0.2620 ca         1 NGB       0.198100
      9 C18          2.6960    -0.9330     0.6920 ca         1 NGB      -0.184500
     10 O7           3.5610     1.0160    -0.5320 os         1 NGB      -0.332100
     11 C7           2.6100     1.9080     0.0760 c6         1 NGB       0.361300
     12 C8           2.9510     3.3910    -0.2850 c6         1 NGB       0.117300
     13 O8           4.2820     3.7820     0.1380 oh         1 NGB      -0.716000
     14 C9           1.8820     4.3160     0.3640 c6         1 NGB       0.136300
     15 O9           2.1380     5.6900     0.0240 oh         1 NGB      -0.660000
     16 C10          0.4520     3.8920    -0.0910 c6         1 NGB       0.148300
     17 O10         -0.5280     4.7270     0.5530 oh         1 NGB      -0.711000
     18 C11          0.2340     2.3770     0.2210 c6         1 NGB       0.171300
     19 O11          1.2870     1.5980    -0.4070 os         1 NGB      -0.471000
     20 C12         -1.1290     1.8470    -0.3130 c3         1 NGB       0.180600
     21 O12         -1.3180     0.4860     0.1250 os         1 NGB      -0.456000
     22 C1          -2.5100    -0.1680    -0.3370 c6         1 NGB       0.366300
     23 C2          -2.4910    -1.6700     0.0920 c6         1 NGB       0.114300
     24 O2          -1.3290    -2.3730    -0.4130 oh         1 NGB      -0.725000
     25 C3          -3.8020    -2.3410    -0.4010 c6         1 NGB       0.140300
     26 O3          -3.8360    -3.7210     0.0010 oh         1 NGB      -0.663000
     27 C4          -5.0390    -1.5710     0.1520 c6         1 NGB       0.142300
     28 O4          -6.2490    -2.1760    -0.3440 oh         1 NGB      -0.719000
     29 C5          -4.9280    -0.0590    -0.2340 c6         1 NGB       0.181300
     30 O5          -3.6620     0.4800     0.2350 os         1 NGB      -0.466000
     31 C6          -6.0880     0.7990     0.3730 c3         1 NGB       0.171600
     32 O6          -5.9830     2.2060     0.0660 oh         1 NGB      -0.713000
     33 H1           2.0750    -2.7530     1.6640 ha         1 NGB       0.153000
     34 H2           5.2180    -3.1290    -1.3190 ha         1 NGB       0.153000
     35 H3           5.1140    -0.6900    -1.7040 ha         1 NGB       0.140000
     36 H4           1.9890    -0.3410     1.2640 ha         1 NGB       0.140000
     37 H5           2.6480     1.7890     1.1700 h2         1 NGB       0.051700
     38 H6           2.8670     3.4870    -1.3790 h1         1 NGB       0.071700
     39 H7           4.9080     3.1140    -0.2330 ho         1 NGB       0.525000
     40 H8           1.9460     4.1890     1.4550 h1         1 NGB       0.055700
     41 H9           3.1200     5.7770     0.0570 ho         1 NGB       0.468000
     42 H10          0.3890     4.0230    -1.1820 h1         1 NGB       0.059700
     43 H11         -0.1370     5.6350     0.5370 ho         1 NGB       0.529000
     44 H12          0.2650     2.2160     1.3090 h1         1 NGB       0.064700
     45 H13         -1.9340     2.4880     0.0710 h1         1 NGB       0.060700
     46 H14         -1.1320     1.9130    -1.4090 h1         1 NGB       0.060700
     47 H15         -2.5560    -0.1010    -1.4350 h2         1 NGB       0.037700
     48 H16         -2.4860    -1.6930     1.1930 h1         1 NGB       0.066700
     49 H17         -0.5640    -1.7630    -0.2800 ho         1 NGB       0.526000
     50 H18         -3.8200    -2.2780    -1.5000 h1         1 NGB       0.051700
     51 H19         -2.9040    -4.0300    -0.0940 ho         1 NGB       0.468000
     52 H20         -5.0180    -1.6380     1.2510 h1         1 NGB       0.057700
     53 H21         -6.0780    -3.1490    -0.3080 ho         1 NGB       0.527000
     54 H22         -4.9700     0.0400    -1.3290 h1         1 NGB       0.058700
     55 H23         -7.0410     0.4060    -0.0060 h1         1 NGB       0.038200
     56 H24         -6.0870     0.6500     1.4620 h1         1 NGB       0.038200
     57 H25         -6.7150     2.6600     0.5450 ho         1 NGB       0.504000
@<TRIPOS>BOND
     1     1     2 1   
     2     2     3 1   
     3     2     4 1   
     4     4     5 ar  
     5     4     6 ar  
     6     5     9 ar  
     7     5    33 1   
     8     6     7 ar  
     9     6    34 1   
    10     7     8 ar  
    11     7    35 1   
    12     8     9 ar  
    13     8    10 1   
    14     9    36 1   
    15    10    11 1   
    16    11    12 1   
    17    11    19 1   
    18    11    37 1   
    19    12    13 1   
    20    12    14 1   
    21    12    38 1   
    22    13    39 1   
    23    14    15 1   
    24    14    16 1   
    25    14    40 1   
    26    15    41 1   
    27    16    17 1   
    28    16    18 1   
    29    16    42 1   
    30    17    43 1   
    31    18    19 1   
    32    18    20 1   
    33    18    44 1   
    34    20    21 1   
    35    20    45 1   
    36    20    46 1   
    37    21    22 1   
    38    22    23 1   
    39    22    30 1   
    40    22    47 1   
    41    23    24 1   
    42    23    25 1   
    43    23    48 1   
    44    24    49 1   
    45    25    26 1   
    46    25    27 1   
    47    25    50 1   
    48    26    51 1   
    49    27    28 1   
    50    27    29 1   
    51    27    52 1   
    52    28    53 1   
    53    29    30 1   
    54    29    31 1   
    55    29    54 1   
    56    31    32 1   
    57    31    55 1   
    58    31    56 1   
    59    32    57 1   
@<TRIPOS>SUBSTRUCTURE
     1 NGB         1 TEMP              0 ****  ****    0 ROOT
