@<TRIPOS>MOLECULE
NGB
   57    59     1     0     0
SMALL
bcc


@<TRIPOS>ATOM
      1 O14          2.0610    -4.8770     1.5580 o          1 NGB      -0.213500
      2 N1           2.7970    -4.5340     0.6600 no         1 NGB       0.322200
      3 O13          3.4650    -5.3050     0.0100 o          1 NGB      -0.213500
      4 C16          2.8810    -3.1260     0.3460 ca         1 NGB      -0.218200
      5 C17          2.1510    -2.2140     1.0930 ca         1 NGB      -0.024500
      6 C15          3.6890    -2.7030    -0.7040 ca         1 NGB      -0.024500
      7 C14          3.7570    -1.3610    -1.0050 ca         1 NGB      -0.202500
      8 C13          3.0260    -0.4310    -0.2630 ca         1 NGB       0.198100
      9 C18          2.2190    -0.8650     0.7920 ca         1 NGB      -0.202500
     10 O7           3.1680     0.8520    -0.6370 os         1 NGB      -0.308900
     11 C7           2.4470     1.8480     0.0250 c6         1 NGB       0.314900
     12 C8           2.9560     3.2070    -0.4410 c6         1 NGB       0.094100
     13 O8           4.2810     3.4350    -0.0400 oh         1 NGB      -0.593800
     14 C9           2.0780     4.2810     0.1990 c6         1 NGB       0.113100
     15 O9           2.3790     5.5610    -0.2940 oh         1 NGB      -0.597800
     16 C10          0.6000     4.0170    -0.0820 c6         1 NGB       0.125100
     17 O10         -0.2270     4.8950     0.6370 oh         1 NGB      -0.588800
     18 C11          0.2520     2.5910     0.3430 c6         1 NGB       0.148100
     19 O11          1.1090     1.6900    -0.3300 os         1 NGB      -0.424600
     20 C12         -1.1680     2.2000    -0.0030 c3         1 NGB       0.157400
     21 O12         -1.3590     0.8780     0.4550 os         1 NGB      -0.409600
     22 C1          -2.3390     0.1380    -0.1680 c6         1 NGB       0.319900
     23 C2          -2.0000    -1.3370     0.0260 c6         1 NGB       0.091100
     24 O2          -0.8130    -1.6820    -0.6440 oh         1 NGB      -0.602800
     25 C3          -3.1240    -2.1850    -0.5500 c6         1 NGB       0.117100
     26 O3          -2.9590    -3.5530    -0.2610 oh         1 NGB      -0.600800
     27 C4          -4.4710    -1.7560     0.0230 c6         1 NGB       0.119100
     28 O4          -5.5320    -2.4120    -0.6250 oh         1 NGB      -0.596800
     29 C5          -4.6560    -0.2480    -0.1660 c6         1 NGB       0.158100
     30 O5          -3.5730     0.4360     0.4290 os         1 NGB      -0.419600
     31 C6          -5.9320     0.2520     0.4780 c3         1 NGB       0.148400
     32 O6          -6.0670     1.6260     0.2040 oh         1 NGB      -0.590800
     33 H1           1.5250    -2.5350     1.9120 ha         1 NGB       0.171000
     34 H2           4.2620    -3.4070    -1.2890 ha         1 NGB       0.171000
     35 H3           4.3790    -1.0200    -1.8220 ha         1 NGB       0.158000
     36 H4           1.6370    -0.1810     1.3910 ha         1 NGB       0.158000
     37 H5           2.5810     1.7580     1.1170 h2         1 NGB       0.051700
     38 H6           2.8460     3.2600    -1.5340 h1         1 NGB       0.071700
     39 H7           4.8750     3.0160    -0.6700 ho         1 NGB       0.426000
     40 H8           2.2240     4.2370     1.2900 h1         1 NGB       0.055700
     41 H9           3.2420     5.8250     0.0420 ho         1 NGB       0.429000
     42 H10          0.4310     4.1060    -1.1670 h1         1 NGB       0.059700
     43 H11         -0.0200     5.7960     0.3660 ho         1 NGB       0.430000
     44 H12          0.3920     2.5020     1.4320 h1         1 NGB       0.064700
     45 H13         -1.8670     2.8920     0.4740 h1         1 NGB       0.060700
     46 H14         -1.3190     2.2630    -1.0880 h1         1 NGB       0.060700
     47 H15         -2.3820     0.3670    -1.2500 h2         1 NGB       0.037700
     48 H16         -1.9230    -1.5310     1.1080 h1         1 NGB       0.066700
     49 H17         -0.0920    -1.1570    -0.2810 ho         1 NGB       0.427000
     50 H18         -3.1540    -2.0170    -1.6390 h1         1 NGB       0.051700
     51 H19         -2.2100    -3.8870    -0.7650 ho         1 NGB       0.429000
     52 H20         -4.4730    -1.9710     1.1040 h1         1 NGB       0.057700
     53 H21         -5.4180    -3.3610    -0.5020 ho         1 NGB       0.428000
     54 H22         -4.6920    -0.0330    -1.2460 h1         1 NGB       0.058700
     55 H23         -6.7710    -0.3250     0.0770 h1         1 NGB       0.038200
     56 H24         -5.8880     0.0530     1.5580 h1         1 NGB       0.038200
     57 H25         -6.9150     1.9160     0.5510 ho         1 NGB       0.405000
@<TRIPOS>BOND
     1     1     2 1   
     2     2     3 1   
     3     2     4 1   
     4     4     5 ar  
     5     4     6 ar  
     6     5     9 ar  
     7     5    33 1   
     8     6     7 ar  
     9     6    34 1   
    10     7     8 ar  
    11     7    35 1   
    12     8     9 ar  
    13     8    10 1   
    14     9    36 1   
    15    10    11 1   
    16    11    12 1   
    17    11    19 1   
    18    11    37 1   
    19    12    13 1   
    20    12    14 1   
    21    12    38 1   
    22    13    39 1   
    23    14    15 1   
    24    14    16 1   
    25    14    40 1   
    26    15    41 1   
    27    16    17 1   
    28    16    18 1   
    29    16    42 1   
    30    17    43 1   
    31    18    19 1   
    32    18    20 1   
    33    18    44 1   
    34    20    21 1   
    35    20    45 1   
    36    20    46 1   
    37    21    22 1   
    38    22    23 1   
    39    22    30 1   
    40    22    47 1   
    41    23    24 1   
    42    23    25 1   
    43    23    48 1   
    44    24    49 1   
    45    25    26 1   
    46    25    27 1   
    47    25    50 1   
    48    26    51 1   
    49    27    28 1   
    50    27    29 1   
    51    27    52 1   
    52    28    53 1   
    53    29    30 1   
    54    29    31 1   
    55    29    54 1   
    56    31    32 1   
    57    31    55 1   
    58    31    56 1   
    59    32    57 1   
@<TRIPOS>SUBSTRUCTURE
     1 NGB         1 TEMP              0 ****  ****    0 ROOT
