@<TRIPOS>MOLECULE
NGD
   71    75     1     0     0
SMALL
No Charge or Current Charge


@<TRIPOS>ATOM
      1 O6A          3.6550    -7.3690    -3.5470 o          1 NGD      -0.525000
      2 C6A          3.5140    -6.7590    -2.4960 c          1 NGD       0.532500
      3 C5A          2.3540    -5.9110    -2.1220 cc         1 NGD       0.106500
      4 N7A          1.2180    -5.6320    -2.8460 nc         1 NGD      -0.626000
      5 C8A          0.4930    -4.8230    -2.0680 cd         1 NGD       0.439400
      6 N9A          1.1410    -4.5710    -0.8620 na         1 NGD      -0.179500
      7 C4A          2.3250    -5.2720    -0.9110 cd         1 NGD       0.102400
      8 N3A          3.3390    -5.3620     0.0480 nd         1 NGD      -0.731100
      9 C2A          4.3320    -6.1320    -0.3400 cc         1 NGD       0.728800
     10 N2A          5.3250    -6.2760     0.5110 nv         1 NGD      -1.063200
     11 N1A          4.4510    -6.7930    -1.5120 ns         1 NGD      -0.449400
     12 C1           0.6370    -3.7850     0.2590 c5         1 NGD       0.279300
     13 O4          -0.5210    -3.0030    -0.1250 os         1 NGD      -0.462000
     14 C2           1.6510    -2.7690     0.8760 c5         1 NGD       0.083300
     15 O2           2.5670    -3.3830     1.8010 oh         1 NGD      -0.739000
     16 C3           0.6700    -1.7760     1.5470 c5         1 NGD       0.161300
     17 O3           0.1300    -2.3450     2.7530 oh         1 NGD      -0.727000
     18 C4          -0.3790    -1.6440     0.3830 c5         1 NGD       0.154300
     19 C5           0.0570    -0.7280    -0.8080 c3         1 NGD       0.224600
     20 O5           0.7760     0.4300    -0.3580 os         1 NGD      -0.599400
     21 PA           0.0100     1.6810     0.3140 p5         1 NGD       1.452800
     22 O1A         -1.0330     1.2140     1.2690 o          1 NGD      -0.819500
     23 O2A          0.9540     2.6120     0.9940 o          1 NGD      -0.819500
     24 O8          -0.6710     2.2660    -0.9750 os         1 NGD      -0.725800
     25 PB           0.2600     3.2030    -1.8270 p5         1 NGD       1.510800
     26 O1B          0.1630     4.6270    -1.3880 o          1 NGD      -0.854500
     27 O2B          1.6650     2.7350    -1.9860 o          1 NGD      -0.854500
     28 O5'R        -0.5500     3.0140    -3.2050 os         1 NGD      -0.573400
     29 C5'R        -0.4340     1.7950    -3.9510 c3         1 NGD       0.229600
     30 C4'R         0.3430     2.0760    -5.2770 c5         1 NGD       0.116300
     31 C3'R        -0.0990     1.1700    -6.4710 c5         1 NGD       0.102300
     32 O3'R         0.3810     1.6310    -7.7560 oh         1 NGD      -0.744000
     33 C2'R         0.6130    -0.1570    -6.0820 c5         1 NGD       0.132300
     34 O2'R         0.7630    -0.9500    -7.2630 oh         1 NGD      -0.700000
     35 O4'R         1.7500     1.7580    -5.1380 os         1 NGD      -0.420000
     36 C1'R         1.9760     0.3660    -5.4960 c5         1 NGD       0.239300
     37 N1           2.5440    -0.4050    -4.3710 na         1 NGD       0.046300
     38 C6           2.6620    -1.8010    -4.4310 ca         1 NGD      -0.074000
     39 C12          3.2280    -2.5560    -3.3900 ca         1 NGD      -0.156000
     40 C11          3.6960    -1.9190    -2.2340 ca         1 NGD       0.016000
     41 C9           3.0630     0.2090    -3.2180 ca         1 NGD       0.046700
     42 C10          3.6050    -0.5180    -2.1320 ca         1 NGD      -0.128600
     43 C7           4.1300     0.1760    -0.9010 c          1 NGD       0.612700
     44 N7           3.7740     1.4540    -0.6710 nt         1 NGD      -0.572000
     45 O7           4.8900    -0.3710    -0.1200 o          1 NGD      -0.656100
     46 H8A         -0.4780    -4.4010    -2.3020 h5         1 NGD       0.088100
     47 H2A1         5.1070    -5.9450     1.4420 hn         1 NGD       0.497000
     48 H2A2         5.8380    -7.1480     0.4750 hn         1 NGD       0.497000
     49 HN1A         5.2830    -7.3300    -1.6920 hn         1 NGD       0.313500
     50 H1           0.3330    -4.5130     1.0210 h2         1 NGD       0.079700
     51 H2           2.2100    -2.2640     0.0770 h1         1 NGD       0.078700
     52 HO2          2.9740    -4.1410     1.2830 ho         1 NGD       0.532000
     53 H3           1.1660    -0.8170     1.7610 h1         1 NGD       0.121700
     54 HO3          0.8760    -2.8860     3.1120 ho         1 NGD       0.514000
     55 H4          -1.3490    -1.2940     0.7580 h1         1 NGD       0.104700
     56 H51         -0.8350    -0.4370    -1.3770 h1         1 NGD       0.025200
     57 H52          0.6980    -1.3050    -1.4870 h1         1 NGD       0.025200
     58 H5'1         0.0710     1.0070    -3.3760 h1         1 NGD       0.037700
     59 H5'2        -1.4390     1.4290    -4.1970 h1         1 NGD       0.037700
     60 HC4          0.2320     3.1410    -5.5220 h1         1 NGD       0.094700
     61 HC3         -1.1930     1.0440    -6.4910 h1         1 NGD       0.095700
     62 H10         -0.0080     2.5260    -7.9210 ho         1 NGD       0.532000
     63 HC2          0.0430    -0.6980    -5.3100 h1         1 NGD       0.116700
     64 H9           0.7230    -0.2620    -7.9800 ho         1 NGD       0.531000
     65 HC1          2.7440     0.3350    -6.2780 h2         1 NGD       0.080700
     66 H6           2.3110    -2.2940    -5.3400 h4         1 NGD       0.162000
     67 H5           3.3120    -3.6350    -3.4880 ha         1 NGD       0.142000
     68 H11          4.1360    -2.5090    -1.4310 ha         1 NGD       0.169000
     69 H7           3.0850     1.2980    -3.2230 h4         1 NGD       0.264000
     70 HN71         3.0290     1.8920    -1.2100 hn         1 NGD       0.372500
     71 HN72         4.0990     1.9000     0.1700 hn         1 NGD       0.372500
@<TRIPOS>BOND
     1     1     2 2   
     2     2     3 1   
     3     2    11 1   
     4     3     4 1   
     5     3     7 2   
     6     4     5 2   
     7     5     6 1   
     8     5    46 1   
     9     6     7 1   
    10     6    12 1   
    11     7     8 1   
    12     8     9 2   
    13     9    10 1   
    14     9    11 1   
    15    10    47 1   
    16    10    48 1   
    17    11    49 1   
    18    12    13 1   
    19    12    14 1   
    20    12    50 1   
    21    13    18 1   
    22    14    15 1   
    23    14    16 1   
    24    14    51 1   
    25    15    52 1   
    26    16    17 1   
    27    16    18 1   
    28    16    53 1   
    29    17    54 1   
    30    18    19 1   
    31    18    55 1   
    32    19    20 1   
    33    19    56 1   
    34    19    57 1   
    35    20    21 1   
    36    21    22 1   
    37    21    23 1   
    38    21    24 1   
    39    24    25 1   
    40    25    26 1   
    41    25    27 1   
    42    25    28 1   
    43    28    29 1   
    44    29    30 1   
    45    29    58 1   
    46    29    59 1   
    47    30    31 1   
    48    30    35 1   
    49    30    60 1   
    50    31    32 1   
    51    31    33 1   
    52    31    61 1   
    53    32    62 1   
    54    33    34 1   
    55    33    36 1   
    56    33    63 1   
    57    34    64 1   
    58    35    36 1   
    59    36    37 1   
    60    36    65 1   
    61    37    38 1   
    62    37    41 2   
    63    38    39 ar  
    64    38    66 1   
    65    39    40 ar  
    66    39    67 1   
    67    40    42 ar  
    68    40    68 1   
    69    41    42 ar  
    70    41    69 1   
    71    42    43 1   
    72    43    44 1   
    73    43    45 2   
    74    44    70 1   
    75    44    71 1   
@<TRIPOS>SUBSTRUCTURE
     1 NGD         1 TEMP              0 ****  ****    0 ROOT
