@<TRIPOS>MOLECULE
NGD
   71    75     1     0     0
SMALL
bcc


@<TRIPOS>ATOM
      1 O6A          0.9820    -6.1090    -5.0500 o          1 NGD      -0.600500
      2 C6A          1.3560    -5.5410    -4.0410 c          1 NGD       0.675000
      3 C5A          0.5880    -4.7960    -3.0970 cc         1 NGD       0.171800
      4 N7A         -0.7540    -4.5340    -3.0410 nc         1 NGD      -0.626000
      5 C8A         -0.9180    -3.8640    -1.9390 cd         1 NGD       0.439400
      6 N9A          0.2620    -3.6570    -1.2670 na         1 NGD      -0.200900
      7 C4A          1.2320    -4.2530    -2.0060 cd         1 NGD       0.087800
      8 N3A          2.5470    -4.2790    -1.7120 nd         1 NGD      -0.731100
      9 C2A          3.2550    -4.9750    -2.5730 cc         1 NGD       0.728800
     10 N2A          4.5800    -5.0740    -2.4220 nv         1 NGD      -0.952800
     11 N1A          2.6990    -5.6020    -3.6450 ns         1 NGD      -0.516400
     12 C1           0.4670    -3.1160     0.0700 c5         1 NGD       0.226800
     13 O4          -0.7500    -2.6520     0.5590 os         1 NGD      -0.415600
     14 C2           1.4440    -1.9280     0.0940 c5         1 NGD       0.060100
     15 O2           2.7720    -2.2830     0.3230 oh         1 NGD      -0.616800
     16 C3           0.8820    -1.1100     1.2540 c5         1 NGD       0.138100
     17 O3           1.2690    -1.6610     2.4890 oh         1 NGD      -0.604800
     18 C4          -0.6140    -1.3270     1.0860 c5         1 NGD       0.131100
     19 C5          -1.2900    -0.3490     0.1360 c3         1 NGD       0.201400
     20 O5          -1.1800     0.9340     0.7030 os         1 NGD      -0.576200
     21 PA          -1.8730     2.2320    -0.0160 p5         1 NGD       1.452800
     22 O1A         -3.3230     1.9700    -0.2620 o          1 NGD      -0.819500
     23 O2A         -1.3870     3.4130     0.7540 o          1 NGD      -0.819500
     24 O8          -1.1830     2.2070    -1.5160 os         1 NGD      -0.725800
     25 PB           0.3780     2.4500    -1.9350 p5         1 NGD       1.510800
     26 O1B          0.7630     3.8820    -1.8330 o          1 NGD      -0.854500
     27 O2B          1.2140     1.3670    -1.2950 o          1 NGD      -0.854500
     28 O5'R         0.2300     2.1260    -3.5300 os         1 NGD      -0.550200
     29 C5'R        -0.0190     0.8130    -3.9780 c3         1 NGD       0.206400
     30 C4'R         0.9930     0.4450    -5.0410 c5         1 NGD       0.093100
     31 C3'R         0.8530    -1.0080    -5.5030 c5         1 NGD       0.079100
     32 O3'R         1.2450    -1.2000    -6.8360 oh         1 NGD      -0.621800
     33 C2'R         1.9050    -1.7100    -4.6460 c5         1 NGD       0.109100
     34 O2'R         2.3400    -2.9450    -5.0870 oh         1 NGD      -0.577800
     35 O4'R         2.3340     0.5750    -4.5240 os         1 NGD      -0.373600
     36 C1'R         2.9950    -0.6280    -4.6170 c5         1 NGD       0.186800
     37 N1           3.9040    -0.8100    -3.4590 na         1 NGD       0.024900
     38 C6           4.8960    -1.7000    -3.6160 ca         1 NGD      -0.041300
     39 C12          5.7610    -1.9590    -2.5840 ca         1 NGD      -0.174000
     40 C11          5.6020    -1.2800    -1.3890 ca         1 NGD      -0.002000
     41 C9           3.7160    -0.1510    -2.3070 ca         1 NGD       0.028700
     42 C10          4.5680    -0.3640    -1.2390 ca         1 NGD      -0.128600
     43 C7           4.4740     0.3740     0.0740 c          1 NGD       0.679700
     44 N7           3.4450     1.1960     0.2510 nt         1 NGD      -0.639000
     45 O7           5.3660     0.2070     0.8950 o          1 NGD      -0.656100
     46 H8A         -1.8600    -3.4970    -1.5650 h5         1 NGD       0.088100
     47 H2A1         4.9800    -4.7870    -1.5460 hn         1 NGD       0.441800
     48 H2A2         5.1170    -5.7300    -2.9640 hn         1 NGD       0.441800
     49 HN1A         3.3130    -6.1140    -4.2660 hn         1 NGD       0.313500
     50 H1           0.8520    -3.9300     0.6950 h2         1 NGD       0.079700
     51 H2           1.3300    -1.3450    -0.8320 h1         1 NGD       0.078700
     52 HO2          3.0000    -2.9860    -0.3140 ho         1 NGD       0.433000
     53 H3           1.1570    -0.0550     1.1730 h1         1 NGD       0.121700
     54 HO3          2.2140    -1.8470     2.4490 ho         1 NGD       0.415000
     55 H4          -1.1220    -1.2950     2.0540 h1         1 NGD       0.104700
     56 H51         -2.3380    -0.6450     0.0110 h1         1 NGD       0.025200
     57 H52         -0.8150    -0.3910    -0.8490 h1         1 NGD       0.025200
     58 H5'1         0.0060     0.0860    -3.1590 h1         1 NGD       0.037700
     59 H5'2        -1.0160     0.7590    -4.4240 h1         1 NGD       0.037700
     60 HC4          0.8970     1.1320    -5.8870 h1         1 NGD       0.094700
     61 HC3         -0.1540    -1.3970    -5.3150 h1         1 NGD       0.095700
     62 H10          0.5310    -0.9360    -7.4240 ho         1 NGD       0.433000
     63 HC2          1.5160    -1.8390    -3.6280 h1         1 NGD       0.116700
     64 H9           2.3940    -2.9300    -6.0510 ho         1 NGD       0.432000
     65 HC1          3.6400    -0.6810    -5.5000 h2         1 NGD       0.080700
     66 H6           4.9820    -2.1780    -4.5800 h4         1 NGD       0.180000
     67 H5           6.5560    -2.6740    -2.7270 ha         1 NGD       0.160000
     68 H11          6.2870    -1.4570    -0.5720 ha         1 NGD       0.187000
     69 H7           2.8780     0.5360    -2.2730 h4         1 NGD       0.282000
     70 HN71         2.6260     1.2920    -0.3670 hn         1 NGD       0.372500
     71 HN72         3.3950     1.6810     1.1330 hn         1 NGD       0.372500
@<TRIPOS>BOND
     1     1     2 2   
     2     2     3 1   
     3     2    11 1   
     4     3     4 1   
     5     3     7 2   
     6     4     5 2   
     7     5     6 1   
     8     5    46 1   
     9     6     7 1   
    10     6    12 1   
    11     7     8 1   
    12     8     9 2   
    13     9    10 1   
    14     9    11 1   
    15    10    47 1   
    16    10    48 1   
    17    11    49 1   
    18    12    13 1   
    19    12    14 1   
    20    12    50 1   
    21    13    18 1   
    22    14    15 1   
    23    14    16 1   
    24    14    51 1   
    25    15    52 1   
    26    16    17 1   
    27    16    18 1   
    28    16    53 1   
    29    17    54 1   
    30    18    19 1   
    31    18    55 1   
    32    19    20 1   
    33    19    56 1   
    34    19    57 1   
    35    20    21 1   
    36    21    22 1   
    37    21    23 1   
    38    21    24 1   
    39    24    25 1   
    40    25    26 1   
    41    25    27 1   
    42    25    28 1   
    43    28    29 1   
    44    29    30 1   
    45    29    58 1   
    46    29    59 1   
    47    30    31 1   
    48    30    35 1   
    49    30    60 1   
    50    31    32 1   
    51    31    33 1   
    52    31    61 1   
    53    32    62 1   
    54    33    34 1   
    55    33    36 1   
    56    33    63 1   
    57    34    64 1   
    58    35    36 1   
    59    36    37 1   
    60    36    65 1   
    61    37    38 1   
    62    37    41 2   
    63    38    39 ar  
    64    38    66 1   
    65    39    40 ar  
    66    39    67 1   
    67    40    42 ar  
    68    40    68 1   
    69    41    42 ar  
    70    41    69 1   
    71    42    43 1   
    72    43    44 1   
    73    43    45 2   
    74    44    70 1   
    75    44    71 1   
@<TRIPOS>SUBSTRUCTURE
     1 NGD         1 TEMP              0 ****  ****    0 ROOT
