@<TRIPOS>MOLECULE
NGE
   40    40     1     0     0
SMALL
No Charge or Current Charge


@<TRIPOS>ATOM
      1 O9           8.5450    -5.5360   -17.5030 oh         1 NGE      -0.735000
      2 C9           7.5540    -6.3150   -16.7990 c3         1 NGE       0.127600
      3 C8           8.2440    -7.3400   -15.8540 c3         1 NGE       0.134300
      4 O8           9.2400    -8.0160   -16.6430 oh         1 NGE      -0.652000
      5 C7           8.8880    -6.6890   -14.5850 c3         1 NGE       0.167300
      6 O7           7.8700    -6.0130   -13.8210 oh         1 NGE      -0.720000
      7 C6           9.6000    -7.7210   -13.6420 c6         1 NGE       0.126300
      8 O6           8.5410    -8.3180   -12.8360 os         1 NGE      -0.460000
      9 C3          10.0220    -8.8230   -10.9570 c6         1 NGE      -0.128400
     10 C4          11.1890    -8.1540   -11.7170 c6         1 NGE       0.159300
     11 O4          12.1000    -7.5710   -10.7790 oh         1 NGE      -0.651000
     12 C5          10.6710    -7.0750   -12.7100 c6         1 NGE       0.035700
     13 N5          11.8010    -6.4950   -13.4780 ns         1 NGE      -0.502900
     14 C2           8.9360    -9.3780   -11.9180 c6         1 NGE       0.245000
     15 C10         12.0000    -5.1540   -13.7410 c          1 NGE       0.564100
     16 O10         11.2590    -4.2860   -13.3010 o          1 NGE      -0.590100
     17 C11         13.2250    -4.8380   -14.6410 c3         1 NGE       0.060600
     18 O11         13.0310    -5.2350   -16.0230 oh         1 NGE      -0.661000
     19 HO9          8.0600    -4.8510   -18.0220 ho         1 NGE       0.495000
     20 H91          6.8870    -5.6630   -16.2190 h1         1 NGE       0.033200
     21 H92          6.9270    -6.8630   -17.5150 h1         1 NGE       0.033200
     22 H8           7.4830    -8.0560   -15.5100 h1         1 NGE       0.107700
     23 HO8          9.4950    -7.3380   -17.3120 ho         1 NGE       0.434000
     24 H7           9.6340    -5.9650   -14.9370 h1         1 NGE       0.059700
     25 HO7          7.6370    -6.6810   -13.1280 ho         1 NGE       0.536000
     26 H6          10.0810    -8.4970   -14.2540 h1         1 NGE       0.033700
     27 H5          10.1830    -6.2780   -12.1290 h1         1 NGE       0.118700
     28 H31         10.4080    -9.6340   -10.3240 hc         1 NGE       0.080200
     29 H32          9.5610    -8.0950   -10.2760 hc         1 NGE       0.080200
     30 H4          11.7160    -8.9270   -12.2950 h1         1 NGE       0.004700
     31 HO4         12.6960    -6.9950   -11.3040 ho         1 NGE       0.430000
     32 HN5         12.4510    -7.1320   -13.9270 hn         1 NGE       0.312500
     33 H111        13.4220    -3.7600   -14.5690 h1         1 NGE       0.066200
     34 H112        14.0910    -5.3590   -14.2110 h1         1 NGE       0.066200
     35 HO11        12.2670    -4.7230   -16.3760 ho         1 NGE       0.447000
     36 C1           7.6930    -9.9300   -11.0500 c          1 NGE       0.753000
     37 O2           9.4890   -10.4470   -12.7140 oh         1 NGE      -0.631000
     38 HO2          8.9780   -11.2360   -12.4250 ho         1 NGE       0.397000
     39 O1A          7.5690   -11.1530   -11.0360 o          1 NGE      -0.688000
     40 O1B          6.6910    -9.2230   -10.9840 o          1 NGE      -0.688000
@<TRIPOS>BOND
     1     1     2 1   
     2     1    19 1   
     3     2     3 1   
     4     2    20 1   
     5     2    21 1   
     6     3     4 1   
     7     3     5 1   
     8     3    22 1   
     9     4    23 1   
    10     5     6 1   
    11     5     7 1   
    12     5    24 1   
    13     6    25 1   
    14     7     8 1   
    15     7    12 1   
    16     7    26 1   
    17     8    14 1   
    18     9    10 1   
    19     9    14 1   
    20     9    28 1   
    21     9    29 1   
    22    10    11 1   
    23    10    12 1   
    24    10    30 1   
    25    11    31 1   
    26    12    13 1   
    27    12    27 1   
    28    13    15 1   
    29    13    32 1   
    30    14    36 1   
    31    14    37 1   
    32    15    16 2   
    33    15    17 1   
    34    17    18 1   
    35    17    33 1   
    36    17    34 1   
    37    18    35 1   
    38    36    39 1   
    39    36    40 1   
    40    37    38 1   
@<TRIPOS>SUBSTRUCTURE
     1 NGE         1 TEMP              0 ****  ****    0 ROOT
