@<TRIPOS>MOLECULE
NGE
   40    40     1     0     0
SMALL
abcg2


@<TRIPOS>ATOM
      1 O9           8.1320    -5.5600   -17.2200 oh         1 NGE      -0.735000
      2 C9           7.2370    -6.4290   -16.5560 c3         1 NGE       0.127600
      3 C8           8.0480    -7.4060   -15.7230 c3         1 NGE       0.134300
      4 O8           8.8720    -8.2070   -16.5430 oh         1 NGE      -0.652000
      5 C7           8.8830    -6.7060   -14.6310 c3         1 NGE       0.167300
      6 O7           8.0880    -5.8530   -13.8420 oh         1 NGE      -0.720000
      7 C6           9.6220    -7.7200   -13.7550 c6         1 NGE       0.126300
      8 O6           8.6140    -8.3870   -13.0280 os         1 NGE      -0.460000
      9 C3          10.0200    -8.7740   -11.1160 c6         1 NGE      -0.128400
     10 C4          11.1790    -8.0930   -11.8210 c6         1 NGE       0.159300
     11 O4          12.0000    -7.5030   -10.8440 oh         1 NGE      -0.651000
     12 C5          10.6340    -7.0600   -12.8090 c6         1 NGE       0.035700
     13 N5          11.7130    -6.4680   -13.5620 ns         1 NGE      -0.502900
     14 C2           9.0130    -9.3760   -12.0960 c6         1 NGE       0.245000
     15 C10         11.9930    -5.1560   -13.6110 c          1 NGE       0.564100
     16 O10         11.3920    -4.2890   -12.9950 o          1 NGE      -0.590100
     17 C11         13.1790    -4.7840   -14.4940 c3         1 NGE       0.060600
     18 O11         13.6720    -5.8230   -15.2980 oh         1 NGE      -0.661000
     19 HO9          7.6560    -5.1060   -17.9210 ho         1 NGE       0.495000
     20 H91          6.5360    -5.8860   -15.9130 h1         1 NGE       0.033200
     21 H92          6.6360    -7.0050   -17.2710 h1         1 NGE       0.033200
     22 H8           7.3370    -8.0860   -15.2420 h1         1 NGE       0.107700
     23 HO8          9.3900    -7.6150   -17.1000 ho         1 NGE       0.434000
     24 H7           9.6250    -6.0710   -15.1260 h1         1 NGE       0.059700
     25 HO7          7.5450    -6.4080   -13.2700 ho         1 NGE       0.536000
     26 H6          10.1670    -8.4150   -14.4110 h1         1 NGE       0.033700
     27 H5          10.1420    -6.2690   -12.2390 h1         1 NGE       0.118700
     28 H31         10.3910    -9.5540   -10.4460 hc         1 NGE       0.080200
     29 H32          9.5040    -8.0340   -10.5010 hc         1 NGE       0.080200
     30 H4          11.7610    -8.8340   -12.3960 h1         1 NGE       0.004700
     31 HO4         12.7740    -7.1330   -11.2810 ho         1 NGE       0.430000
     32 HN5         12.2870    -7.0800   -14.1260 hn         1 NGE       0.312500
     33 H111        12.8890    -3.9030   -15.0750 h1         1 NGE       0.066200
     34 H112        13.9860    -4.4680   -13.8290 h1         1 NGE       0.066200
     35 HO11        13.1190    -5.8930   -16.0830 ho         1 NGE       0.447000
     36 C1           7.6850    -9.7650   -11.3640 c          1 NGE       0.753000
     37 O2           9.5180   -10.4960   -12.7510 oh         1 NGE      -0.631000
     38 HO2         10.4500   -10.3780   -12.9660 ho         1 NGE       0.397000
     39 O1A          7.3270   -10.9500   -11.4250 o          1 NGE      -0.688000
     40 O1B          7.1190    -8.8200   -10.7860 o          1 NGE      -0.688000
@<TRIPOS>BOND
     1     1     2 1   
     2     1    19 1   
     3     2     3 1   
     4     2    20 1   
     5     2    21 1   
     6     3     4 1   
     7     3     5 1   
     8     3    22 1   
     9     4    23 1   
    10     5     6 1   
    11     5     7 1   
    12     5    24 1   
    13     6    25 1   
    14     7     8 1   
    15     7    12 1   
    16     7    26 1   
    17     8    14 1   
    18     9    10 1   
    19     9    14 1   
    20     9    28 1   
    21     9    29 1   
    22    10    11 1   
    23    10    12 1   
    24    10    30 1   
    25    11    31 1   
    26    12    13 1   
    27    12    27 1   
    28    13    15 1   
    29    13    32 1   
    30    14    36 1   
    31    14    37 1   
    32    15    16 2   
    33    15    17 1   
    34    17    18 1   
    35    17    33 1   
    36    17    34 1   
    37    18    35 1   
    38    36    39 1   
    39    36    40 1   
    40    37    38 1   
@<TRIPOS>SUBSTRUCTURE
     1 NGE         1 TEMP              0 ****  ****    0 ROOT
