@<TRIPOS>MOLECULE
NGF
   40    39     1     0     0
SMALL
No Charge or Current Charge


@<TRIPOS>ATOM
      1 O10         -0.5860     2.5120    -1.2870 o          1 NGF      -0.547100
      2 C10         -0.2470     2.3630    -0.1180 c          1 NGF       0.605100
      3 C11         -0.1030     3.5370     0.9000 c3         1 NGF       0.076600
      4 N5           0.0450     1.1160     0.4060 ns         1 NGF      -0.517900
      5 C5           0.0120    -0.1560    -0.3540 c3         1 NGF       0.046700
      6 C4          -1.3130    -0.9440    -0.0920 c3         1 NGF       0.166300
      7 O4          -1.4870    -1.1700     1.3140 oh         1 NGF      -0.650000
      8 C3          -2.5680    -0.2200    -0.6200 c3         1 NGF      -0.230400
      9 C6           1.2920    -1.0110    -0.0840 c3         1 NGF       0.137300
     10 O6           1.2900    -2.1700    -0.9330 oh         1 NGF      -0.698000
     11 C2          -3.8080    -1.1260    -0.5050 c          1 NGF       0.426100
     12 O2          -4.0380    -1.9630    -1.3830 o          1 NGF      -0.551100
     13 C1          -4.7710    -0.9390     0.7890 c          1 NGF       0.648000
     14 O1          -4.8350     0.1660     1.3240 o          1 NGF      -0.694500
     15 O3          -5.4400    -1.9000     1.1640 o          1 NGF      -0.694500
     16 C7           2.6270    -0.2570    -0.3870 c3         1 NGF       0.101300
     17 O7           2.7830    -0.1890    -1.8270 oh         1 NGF      -0.707000
     18 C8           3.8740    -0.9430     0.2600 c3         1 NGF       0.137300
     19 O8           3.7550    -0.9570     1.6920 oh         1 NGF      -0.687000
     20 C9           5.2150    -0.2330    -0.0710 c3         1 NGF       0.124600
     21 O9           6.2680    -0.7830     0.7450 oh         1 NGF      -0.709000
     22 O5          -0.3490     4.8500     0.3390 oh         1 NGF      -0.616000
     23 H1          -0.8010     3.3410     1.7250 h1         1 NGF       0.025200
     24 H2           0.9120     3.4890     1.3150 h1         1 NGF       0.025200
     25 H3           0.3430     1.0930     1.3750 hn         1 NGF       0.297500
     26 H4           0.0300     0.0890    -1.4240 h1         1 NGF       0.092700
     27 H5          -1.2430    -1.9070    -0.6200 h1         1 NGF       0.092700
     28 H6          -1.5330    -0.2860     1.7360 ho         1 NGF       0.427000
     29 H7          -2.7140     0.6930    -0.0320 hc         1 NGF       0.075700
     30 H8          -2.4090     0.0320    -1.6750 hc         1 NGF       0.075700
     31 H9           1.2800    -1.3070     0.9750 h1         1 NGF       0.093700
     32 H10          1.8390    -1.8640    -1.6990 ho         1 NGF       0.496000
     33 H12          2.5620     0.7570     0.0340 h1         1 NGF       0.067700
     34 H13          3.1700     0.6900    -2.0480 ho         1 NGF       0.499000
     35 H14          3.9390    -1.9720    -0.1220 h1         1 NGF       0.093700
     36 H15          4.6980    -0.9870     1.9900 ho         1 NGF       0.490000
     37 H16          5.4450    -0.3700    -1.1360 h1         1 NGF       0.024700
     38 H17          5.1140     0.8450     0.1150 h1         1 NGF       0.024700
     39 H18          7.1150    -0.3800     0.4380 ho         1 NGF       0.497000
     40 H19         -0.2380     5.5050     1.0630 ho         1 NGF       0.435000
@<TRIPOS>BOND
     1     1     2 2   
     2     2     3 1   
     3     2     4 1   
     4     3    22 1   
     5     3    23 1   
     6     3    24 1   
     7     4     5 1   
     8     4    25 1   
     9     5     6 1   
    10     5     9 1   
    11     5    26 1   
    12     6     7 1   
    13     6     8 1   
    14     6    27 1   
    15     7    28 1   
    16     8    11 1   
    17     8    29 1   
    18     8    30 1   
    19     9    10 1   
    20     9    16 1   
    21     9    31 1   
    22    10    32 1   
    23    11    12 2   
    24    11    13 1   
    25    13    14 1   
    26    13    15 1   
    27    16    17 1   
    28    16    18 1   
    29    16    33 1   
    30    17    34 1   
    31    18    19 1   
    32    18    20 1   
    33    18    35 1   
    34    19    36 1   
    35    20    21 1   
    36    20    37 1   
    37    20    38 1   
    38    21    39 1   
    39    22    40 1   
@<TRIPOS>SUBSTRUCTURE
     1 NGF         1 TEMP              0 ****  ****    0 ROOT
