@<TRIPOS>MOLECULE
NGF
   40    39     1     0     0
SMALL
bcc


@<TRIPOS>ATOM
      1 O10         -0.3950     2.4470    -1.1290 o          1 NGF      -0.547100
      2 C10         -0.1240     2.2470     0.0400 c          1 NGF       0.672100
      3 C11         -0.0050     3.3730     1.0540 c3         1 NGF       0.053400
      4 N5           0.0920     1.0260     0.5710 ns         1 NGF      -0.584900
      5 C5           0.0870    -0.2080    -0.1840 c3         1 NGF       0.046700
      6 C4          -1.1490    -1.0600     0.1470 c3         1 NGF       0.143100
      7 O4          -1.1270    -1.5180     1.4820 oh         1 NGF      -0.587800
      8 C3          -2.4330    -0.3090    -0.1650 c3         1 NGF      -0.230400
      9 C6           1.4010    -0.9700     0.0600 c3         1 NGF       0.114100
     10 O6           1.4000    -2.2050    -0.6220 oh         1 NGF      -0.575800
     11 C2          -3.6700    -1.1710    -0.1670 c          1 NGF       0.426100
     12 O2          -3.6190    -2.3780    -0.1260 o          1 NGF      -0.551100
     13 C1          -5.0420    -0.4400    -0.2650 c          1 NGF       0.858600
     14 O1          -4.9880     0.8010    -0.2640 o          1 NGF      -0.799800
     15 O3          -6.0360    -1.1750    -0.3360 o          1 NGF      -0.799800
     16 C7           2.6330    -0.1300    -0.3020 c3         1 NGF       0.078100
     17 O7           2.6020     0.2870    -1.6510 oh         1 NGF      -0.584800
     18 C8           3.9490    -0.8600     0.0250 c3         1 NGF       0.114100
     19 O8           3.9530    -1.3410     1.3490 oh         1 NGF      -0.564800
     20 C9           5.1460     0.0380    -0.2460 c3         1 NGF       0.101400
     21 O9           6.3260    -0.6990    -0.0250 oh         1 NGF      -0.586800
     22 O5          -0.2120     4.5890     0.4000 oh         1 NGF      -0.553800
     23 H1          -0.7400     3.1920     1.8510 h1         1 NGF       0.025200
     24 H2           0.9850     3.3110     1.5260 h1         1 NGF       0.025200
     25 H3           0.3270     0.9730     1.5510 hn         1 NGF       0.297500
     26 H4           0.0270     0.0600    -1.2410 h1         1 NGF       0.092700
     27 H5          -1.1080    -1.9550    -0.4780 h1         1 NGF       0.092700
     28 H6          -1.3870    -0.7960     2.0650 ho         1 NGF       0.388000
     29 H7          -2.5790     0.5260     0.5260 hc         1 NGF       0.075700
     30 H8          -2.3700     0.1630    -1.1520 hc         1 NGF       0.075700
     31 H9           1.4630    -1.2140     1.1230 h1         1 NGF       0.093700
     32 H10          1.1680    -2.0580    -1.5450 ho         1 NGF       0.397000
     33 H12          2.6050     0.7890     0.2940 h1         1 NGF       0.067700
     34 H13          2.8390    -0.4550    -2.2180 ho         1 NGF       0.400000
     35 H14          4.0230    -1.7480    -0.6140 h1         1 NGF       0.093700
     36 H15          3.9540    -0.5890     1.9500 ho         1 NGF       0.391000
     37 H16          5.0940     0.4150    -1.2730 h1         1 NGF       0.024700
     38 H17          5.0880     0.9160     0.4170 h1         1 NGF       0.024700
     39 H18          7.0730    -0.1190    -0.1980 ho         1 NGF       0.398000
     40 H19         -0.1230     5.2900     1.0520 ho         1 NGF       0.396000
@<TRIPOS>BOND
     1     1     2 2   
     2     2     3 1   
     3     2     4 1   
     4     3    22 1   
     5     3    23 1   
     6     3    24 1   
     7     4     5 1   
     8     4    25 1   
     9     5     6 1   
    10     5     9 1   
    11     5    26 1   
    12     6     7 1   
    13     6     8 1   
    14     6    27 1   
    15     7    28 1   
    16     8    11 1   
    17     8    29 1   
    18     8    30 1   
    19     9    10 1   
    20     9    16 1   
    21     9    31 1   
    22    10    32 1   
    23    11    12 2   
    24    11    13 1   
    25    13    14 1   
    26    13    15 1   
    27    16    17 1   
    28    16    18 1   
    29    16    33 1   
    30    17    34 1   
    31    18    19 1   
    32    18    20 1   
    33    18    35 1   
    34    19    36 1   
    35    20    21 1   
    36    20    37 1   
    37    20    38 1   
    38    21    39 1   
    39    22    40 1   
@<TRIPOS>SUBSTRUCTURE
     1 NGF         1 TEMP              0 ****  ****    0 ROOT
