@<TRIPOS>MOLECULE
NGI
   64    67     1     0     0
SMALL
No Charge or Current Charge


@<TRIPOS>ATOM
      1 C1          -9.1100     0.3240    -3.0190 c3         1 NGI      -0.111100
      2 N1          -7.8590     0.5260    -0.8910 ns         1 NGI      -0.507900
      3 O1          -7.4530    -0.9420     0.8150 o          1 NGI      -0.586100
      4 C2          -8.7530    -0.3240    -1.6730 c3         1 NGI       0.106000
      5 N2          -3.7580    -0.1820     1.8780 na         1 NGI      -0.329300
      6 O2          -5.7870     1.0300     2.1270 os         1 NGI      -0.411000
      7 C3          -7.2650     0.1510     0.2950 c          1 NGI       0.594100
      8 N3          -3.5850    -2.4870     1.9350 nc         1 NGI      -0.548100
      9 O3          -4.4070     3.5200     1.1600 oh         1 NGI      -0.702000
     10 C4          -6.3920     1.3290     0.8310 c5         1 NGI       0.079300
     11 N4          -0.9390    -3.8160     1.3420 nv         1 NGI      -1.069900
     12 O4          -5.5340     2.5820    -1.1570 oh         1 NGI      -0.720000
     13 C5          -4.3470     1.1540     2.0250 c5         1 NGI       0.326300
     14 N5          -0.0450    -1.7320     1.0660 nb         1 NGI      -0.350000
     15 O5          11.2870     0.0650    -2.7060 o          1 NGI      -0.739000
     16 C6          -4.1290     2.1470     0.8310 c5         1 NGI       0.102300
     17 N6           0.8460     0.4090     0.8020 nu         1 NGI      -0.918100
     18 O6          11.7710     0.1190    -0.6080 o          1 NGI      -0.739000
     19 C7          -5.2060     1.6080    -0.1500 c5         1 NGI       0.090300
     20 N7          -1.3900     0.2550     1.3200 nb         1 NGI      -0.311000
     21 C8          -4.3920    -1.4210     2.1000 cd         1 NGI       0.397700
     22 C9          -2.3760    -1.8840     1.6110 ca         1 NGI      -0.152600
     23 C10         -1.1260    -2.4720     1.3350 ca         1 NGI       0.484900
     24 C11         -0.2400    -0.4000     1.0740 ca         1 NGI       0.441900
     25 C12          2.2250    -0.0170     0.4960 c3         1 NGI       0.232800
     26 C13          3.1400     1.2000     0.2520 c3         1 NGI      -0.038100
     27 C14          4.5700     0.7830    -0.0680 ca         1 NGI      -0.118300
     28 C15          4.9630     0.5540    -1.4000 ca         1 NGI      -0.108000
     29 C16          6.2810     0.1630    -1.6940 ca         1 NGI      -0.117000
     30 C17          7.2210    -0.0050    -0.6590 ca         1 NGI      -0.037300
     31 C18          8.6500    -0.4280    -0.9790 c3         1 NGI      -0.024100
     32 C19          9.5790     0.7840    -1.2250 c3         1 NGI      -0.203400
     33 C20         11.0030     0.2990    -1.5410 c          1 NGI       0.717000
     34 C21          6.8270     0.2240     0.6730 ca         1 NGI      -0.117000
     35 C22          5.5100     0.6150     0.9670 ca         1 NGI      -0.108000
     36 C23         -2.4610    -0.5160     1.5860 ca         1 NGI       0.168500
     37 H1          -9.7800    -0.3300    -3.5900 hc         1 NGI       0.042033
     38 H1A         -9.6170     1.2840    -2.8640 hc         1 NGI       0.042033
     39 H1B         -8.2080     0.4980    -3.6170 hc         1 NGI       0.042033
     40 HN1         -7.6080     1.4410    -1.2560 hn         1 NGI       0.323500
     41 H2          -9.6690    -0.5040    -1.0950 h1         1 NGI       0.051700
     42 H2A         -8.2620    -1.2910    -1.8520 h1         1 NGI       0.051700
     43 HO3         -4.9610     3.8350     0.4030 ho         1 NGI       0.519000
     44 H4          -7.0340     2.2110     0.9430 h1         1 NGI       0.085700
     45 HN4          0.0110    -4.1570     1.4490 hn         1 NGI       0.505000
     46 HN4A        -1.6750    -4.3740     1.7660 hn         1 NGI       0.505000
     47 HO4         -4.8760     2.4920    -1.8910 ho         1 NGI       0.522000
     48 H5          -3.9290     1.5670     2.9520 h2         1 NGI       0.127700
     49 H6          -3.1210     2.0530     0.4060 h1         1 NGI       0.084700
     50 HN6          0.6520     1.4090     0.8250 hn         1 NGI       0.496000
     51 H7          -4.8640     0.6680    -0.6130 h1         1 NGI       0.069700
     52 H8          -5.4350    -1.4730     2.3910 h5         1 NGI       0.091800
     53 H12          2.6300    -0.6080     1.3290 h1         1 NGI       0.055700
     54 H12A         2.2310    -0.6540    -0.4000 h1         1 NGI       0.055700
     55 H13          2.7310     1.7990    -0.5710 hc         1 NGI       0.043700
     56 H13A         3.1270     1.8440     1.1400 hc         1 NGI       0.043700
     57 H15          4.2470     0.6770    -2.2100 ha         1 NGI       0.096500
     58 H16          6.5720    -0.0090    -2.7280 ha         1 NGI       0.114500
     59 H18          9.0540    -1.0320    -0.1570 hc         1 NGI       0.052200
     60 H18A         8.6600    -1.0760    -1.8640 hc         1 NGI       0.052200
     61 H19          9.1540     1.3180    -2.0830 hc         1 NGI       0.020700
     62 H19A         9.5680     1.3650    -0.2940 hc         1 NGI       0.020700
     63 H21          7.5440     0.1010     1.4810 ha         1 NGI       0.114500
     64 H22          5.2200     0.7870     2.0010 ha         1 NGI       0.096500
@<TRIPOS>BOND
     1     1     4 1   
     2     1    37 1   
     3     1    38 1   
     4     1    39 1   
     5     2     4 1   
     6     2     7 1   
     7     2    40 1   
     8     3     7 2   
     9     4    41 1   
    10     4    42 1   
    11     5    13 1   
    12     5    21 1   
    13     5    36 1   
    14     6    10 1   
    15     6    13 1   
    16     7    10 1   
    17     8    21 2   
    18     8    22 1   
    19     9    16 1   
    20     9    43 1   
    21    10    19 1   
    22    10    44 1   
    23    11    23 1   
    24    11    45 1   
    25    11    46 1   
    26    12    19 1   
    27    12    47 1   
    28    13    16 1   
    29    13    48 1   
    30    14    23 ar  
    31    14    24 ar  
    32    15    33 1   
    33    16    19 1   
    34    16    49 1   
    35    17    24 1   
    36    17    25 1   
    37    17    50 1   
    38    18    33 1   
    39    19    51 1   
    40    20    24 ar  
    41    20    36 ar  
    42    21    52 1   
    43    22    23 ar  
    44    22    36 ar  
    45    25    26 1   
    46    25    53 1   
    47    25    54 1   
    48    26    27 1   
    49    26    55 1   
    50    26    56 1   
    51    27    28 ar  
    52    27    35 ar  
    53    28    29 ar  
    54    28    57 1   
    55    29    30 ar  
    56    29    58 1   
    57    30    31 1   
    58    30    34 ar  
    59    31    32 1   
    60    31    59 1   
    61    31    60 1   
    62    32    33 1   
    63    32    61 1   
    64    32    62 1   
    65    34    35 ar  
    66    34    63 1   
    67    35    64 1   
@<TRIPOS>SUBSTRUCTURE
     1 NGI         1 TEMP              0 ****  ****    0 ROOT
