@<TRIPOS>MOLECULE
NGI
   64    67     1     0     0
SMALL
abcg2


@<TRIPOS>ATOM
      1 C1         -10.7800     0.5170    -1.1350 c3         1 NGI      -0.111100
      2 N1          -8.5120     0.6570    -0.2600 ns         1 NGI      -0.507900
      3 O1          -7.4020    -0.6310     1.2240 o          1 NGI      -0.586100
      4 C2          -9.6810    -0.1960    -0.3720 c3         1 NGI       0.106000
      5 N2          -3.4710    -0.1310     1.0220 na         1 NGI      -0.329300
      6 O2          -5.3760     1.1550     1.4150 os         1 NGI      -0.411000
      7 C3          -7.4580     0.3550     0.5050 c          1 NGI       0.594100
      8 N3          -3.2540    -2.3380     1.2480 nc         1 NGI      -0.548100
      9 O3          -4.1330     3.0830    -0.4820 oh         1 NGI      -0.702000
     10 C4          -6.3080     1.3440     0.3750 c5         1 NGI       0.079300
     11 N4          -0.4500    -3.5800     1.0770 nv         1 NGI      -1.069900
     12 O4          -6.1190     1.8630    -1.9670 oh         1 NGI      -0.720000
     13 C5          -4.0620     1.1940     0.9320 c5         1 NGI       0.326300
     14 N5           0.2930    -1.4260     0.7740 nb         1 NGI      -0.350000
     15 O5          12.1760     1.0370    -0.7220 o          1 NGI      -0.739000
     16 C6          -4.1430     1.6830    -0.5120 c5         1 NGI       0.102300
     17 N6           1.1070     0.6970     0.5000 nu         1 NGI      -0.918100
     18 O6          11.5870    -1.1090    -0.8150 o          1 NGI      -0.739000
     19 C7          -5.5180     1.1510    -0.9260 c5         1 NGI       0.090300
     20 N7          -1.1570     0.4850     0.7190 nb         1 NGI      -0.311000
     21 C8          -4.0890    -1.3430     1.2230 cd         1 NGI       0.397700
     22 C9          -2.0220    -1.7620     1.0570 ca         1 NGI      -0.152600
     23 C10         -0.7140    -2.2760     0.9730 ca         1 NGI       0.484900
     24 C11          0.0380    -0.1140     0.6670 ca         1 NGI       0.441900
     25 C12          2.4480     0.2200     0.2620 c3         1 NGI       0.232800
     26 C13          3.4370     1.3800     0.3080 c3         1 NGI      -0.038100
     27 C14          4.8450     0.8970     0.0960 ca         1 NGI      -0.118300
     28 C15          5.3970     0.8220    -1.1800 ca         1 NGI      -0.108000
     29 C16          6.6800     0.3270    -1.3740 ca         1 NGI      -0.117000
     30 C17          7.4550    -0.1110    -0.3030 ca         1 NGI      -0.037300
     31 C18          8.8580    -0.6070    -0.5120 c3         1 NGI      -0.024100
     32 C19          9.8750     0.5300    -0.4920 c3         1 NGI      -0.203400
     33 C20         11.3420     0.1080    -0.6960 c          1 NGI       0.717000
     34 C21          6.9000    -0.0320     0.9730 ca         1 NGI      -0.117000
     35 C22          5.6180     0.4620     1.1690 ca         1 NGI      -0.108000
     36 C23         -2.1360    -0.3890     0.9160 ca         1 NGI       0.168500
     37 H1         -11.6550    -0.1270    -1.2180 hc         1 NGI       0.042033
     38 H1A        -11.0830     1.4330    -0.6270 hc         1 NGI       0.042033
     39 H1B        -10.4610     0.7750    -2.1460 hc         1 NGI       0.042033
     40 HN1         -8.4560     1.4610    -0.8660 hn         1 NGI       0.323500
     41 H2         -10.0290    -0.4580     0.6280 h1         1 NGI       0.051700
     42 H2A         -9.4180    -1.1300    -0.8740 h1         1 NGI       0.051700
     43 HO3         -4.5670     3.4040    -1.2820 ho         1 NGI       0.519000
     44 H4          -6.7060     2.3670     0.4070 h1         1 NGI       0.085700
     45 HN4          0.4970    -3.9140     1.0220 hn         1 NGI       0.505000
     46 HN4A        -1.1830    -4.2460     1.2420 hn         1 NGI       0.505000
     47 HO4         -5.8540     1.4740    -2.8070 ho         1 NGI       0.522000
     48 H5          -3.4540     1.8650     1.5450 h2         1 NGI       0.127700
     49 H6          -3.3320     1.2770    -1.1290 h1         1 NGI       0.084700
     50 HN6          0.8980     1.6530     0.2640 hn         1 NGI       0.496000
     51 H7          -5.4370     0.0820    -1.1620 h1         1 NGI       0.069700
     52 H8          -5.1580    -1.4180     1.3510 h5         1 NGI       0.091800
     53 H12          2.7110    -0.5150     1.0240 h1         1 NGI       0.055700
     54 H12A         2.5260    -0.2920    -0.7050 h1         1 NGI       0.055700
     55 H13          3.1770     2.1150    -0.4590 hc         1 NGI       0.043700
     56 H13A         3.3550     1.8830     1.2740 hc         1 NGI       0.043700
     57 H15          4.8190     1.1540    -2.0350 ha         1 NGI       0.096500
     58 H16          7.0830     0.2770    -2.3800 ha         1 NGI       0.114500
     59 H18          9.1070    -1.3350     0.2630 hc         1 NGI       0.052200
     60 H18A         8.9210    -1.1360    -1.4650 hc         1 NGI       0.052200
     61 H19          9.6180     1.2690    -1.2580 hc         1 NGI       0.020700
     62 H19A         9.8030     1.0720     0.4590 hc         1 NGI       0.020700
     63 H21          7.4770    -0.3650     1.8290 ha         1 NGI       0.114500
     64 H22          5.2120     0.5100     2.1730 ha         1 NGI       0.096500
@<TRIPOS>BOND
     1     1     4 1   
     2     1    37 1   
     3     1    38 1   
     4     1    39 1   
     5     2     4 1   
     6     2     7 1   
     7     2    40 1   
     8     3     7 2   
     9     4    41 1   
    10     4    42 1   
    11     5    13 1   
    12     5    21 1   
    13     5    36 1   
    14     6    10 1   
    15     6    13 1   
    16     7    10 1   
    17     8    21 2   
    18     8    22 1   
    19     9    16 1   
    20     9    43 1   
    21    10    19 1   
    22    10    44 1   
    23    11    23 1   
    24    11    45 1   
    25    11    46 1   
    26    12    19 1   
    27    12    47 1   
    28    13    16 1   
    29    13    48 1   
    30    14    23 ar  
    31    14    24 ar  
    32    15    33 1   
    33    16    19 1   
    34    16    49 1   
    35    17    24 1   
    36    17    25 1   
    37    17    50 1   
    38    18    33 1   
    39    19    51 1   
    40    20    24 ar  
    41    20    36 ar  
    42    21    52 1   
    43    22    23 ar  
    44    22    36 ar  
    45    25    26 1   
    46    25    53 1   
    47    25    54 1   
    48    26    27 1   
    49    26    55 1   
    50    26    56 1   
    51    27    28 ar  
    52    27    35 ar  
    53    28    29 ar  
    54    28    57 1   
    55    29    30 ar  
    56    29    58 1   
    57    30    31 1   
    58    30    34 ar  
    59    31    32 1   
    60    31    59 1   
    61    31    60 1   
    62    32    33 1   
    63    32    61 1   
    64    32    62 1   
    65    34    35 ar  
    66    34    63 1   
    67    35    64 1   
@<TRIPOS>SUBSTRUCTURE
     1 NGI         1 TEMP              0 ****  ****    0 ROOT
