@<TRIPOS>MOLECULE
NGJ
   26    27     1     0     0
SMALL
abcg2


@<TRIPOS>ATOM
      1 CAL          3.1640     0.9870    -0.4030 c3         1 NGJ      -0.048200
      2 CAI          1.7760     0.4400    -0.2900 cc         1 NGJ       0.051400
      3 CAH          0.6630     1.2010    -0.2360 cd         1 NGJ      -0.250200
      4 CAE         -0.6250     0.5890    -0.0870 ca         1 NGJ      -0.028800
      5 CAD         -1.8210     1.3560    -0.0520 ca         1 NGJ       0.270000
      6 NAM         -1.7700     2.7330    -0.1500 nv         1 NGJ      -1.061000
      7 CAC         -3.0280     0.7000     0.1420 ca         1 NGJ      -0.155000
      8 CAB         -3.0880    -0.6860     0.2880 ca         1 NGJ      -0.094000
      9 CAA         -1.9420    -1.4460     0.2260 ca         1 NGJ      -0.086000
     10 CAF         -0.7120    -0.8090     0.0360 ca         1 NGJ      -0.134600
     11 CAG          0.5010    -1.6260    -0.0360 c          1 NGJ       0.569600
     12 OAK          0.5130    -2.8490     0.0360 o          1 NGJ      -0.560000
     13 NAJ          1.6630    -0.9250    -0.2040 ns         1 NGJ      -0.383100
     14 CAN          3.9940     0.7750     0.8640 c3         1 NGJ      -0.090100
     15 HAL1         3.6700     0.5200    -1.2540 hc         1 NGJ       0.056700
     16 HAL2         3.0960     2.0510    -0.6250 hc         1 NGJ       0.056700
     17 HAN1         4.1220    -0.2820     1.0980 hc         1 NGJ       0.041367
     18 HAN2         4.9870     1.2040     0.7370 hc         1 NGJ       0.041367
     19 HAN3         3.5250     1.2560     1.7220 hc         1 NGJ       0.041367
     20 HAH          0.7750     2.2740    -0.2820 ha         1 NGJ       0.192000
     21 HAJ          2.5050    -1.4820    -0.2710 hn         1 NGJ       0.323500
     22 HAM1        -1.0740     3.1040    -0.7770 hn         1 NGJ       0.441500
     23 HAM2        -2.6630     3.1680    -0.3250 hn         1 NGJ       0.441500
     24 HAC         -3.9430     1.2810     0.1720 ha         1 NGJ       0.111000
     25 HAB         -4.0490    -1.1600     0.4390 ha         1 NGJ       0.116000
     26 HAA         -1.9860    -2.5220     0.3200 ha         1 NGJ       0.137000
@<TRIPOS>BOND
     1     1     2 1   
     2     1    14 1   
     3     1    15 1   
     4     1    16 1   
     5     2     3 2   
     6     2    13 1   
     7     3     4 1   
     8     3    20 1   
     9     4     5 ar  
    10     4    10 ar  
    11     5     6 1   
    12     5     7 ar  
    13     6    22 1   
    14     6    23 1   
    15     7     8 ar  
    16     7    24 1   
    17     8     9 ar  
    18     8    25 1   
    19     9    10 ar  
    20     9    26 1   
    21    10    11 1   
    22    11    12 2   
    23    11    13 1   
    24    13    21 1   
    25    14    17 1   
    26    14    18 1   
    27    14    19 1   
@<TRIPOS>SUBSTRUCTURE
     1 NGJ         1 TEMP              0 ****  ****    0 ROOT
