@<TRIPOS>MOLECULE
NGJ
   26    27     1     0     0
SMALL
No Charge or Current Charge


@<TRIPOS>ATOM
      1 CAL          3.2300     0.9010    -0.4570 c3         1 NGJ      -0.048200
      2 CAI          1.8190     0.3950    -0.3000 cc         1 NGJ       0.051400
      3 CAH          0.6820     1.1670    -0.2420 cd         1 NGJ      -0.250200
      4 CAE         -0.6570     0.5660    -0.0850 ca         1 NGJ      -0.028800
      5 CAD         -1.8430     1.3460    -0.0250 ca         1 NGJ       0.270000
      6 NAM         -1.8230     2.7190    -0.1220 nv         1 NGJ      -1.061000
      7 CAC         -3.0850     0.7110     0.1350 ca         1 NGJ      -0.155000
      8 CAB         -3.1650    -0.6870     0.2320 ca         1 NGJ      -0.094000
      9 CAA         -1.9970    -1.4620     0.1700 ca         1 NGJ      -0.086000
     10 CAF         -0.7390    -0.8430     0.0120 ca         1 NGJ      -0.134600
     11 CAG          0.5210    -1.6740    -0.0550 c          1 NGJ       0.569600
     12 OAK          0.5210    -2.8940     0.0200 o          1 NGJ      -0.560000
     13 NAJ          1.6970    -0.9800    -0.2090 ns         1 NGJ      -0.383100
     14 CAN          4.0150     0.9170     0.8690 c3         1 NGJ      -0.090100
     15 HAL1         3.7710     0.2870    -1.1880 hc         1 NGJ       0.056700
     16 HAL2         3.2140     1.9180    -0.8690 hc         1 NGJ       0.056700
     17 HAN1         4.0990    -0.0950     1.2850 hc         1 NGJ       0.041367
     18 HAN2         5.0280     1.3070     0.7100 hc         1 NGJ       0.041367
     19 HAN3         3.5130     1.5530     1.6070 hc         1 NGJ       0.041367
     20 HAH          0.7960     2.2430    -0.3070 ha         1 NGJ       0.192000
     21 HAJ          2.5280    -1.5550    -0.2510 hn         1 NGJ       0.323500
     22 HAM1        -0.9710     3.1930    -0.4100 hn         1 NGJ       0.441500
     23 HAM2        -2.6980     3.2320    -0.2130 hn         1 NGJ       0.441500
     24 HAC         -3.9970     1.3010     0.1830 ha         1 NGJ       0.111000
     25 HAB         -4.1320    -1.1700     0.3550 ha         1 NGJ       0.116000
     26 HAA         -2.0720    -2.5450     0.2450 ha         1 NGJ       0.137000
@<TRIPOS>BOND
     1     1     2 1   
     2     1    14 1   
     3     1    15 1   
     4     1    16 1   
     5     2     3 2   
     6     2    13 1   
     7     3     4 1   
     8     3    20 1   
     9     4     5 ar  
    10     4    10 ar  
    11     5     6 1   
    12     5     7 ar  
    13     6    22 1   
    14     6    23 1   
    15     7     8 ar  
    16     7    24 1   
    17     8     9 ar  
    18     8    25 1   
    19     9    10 ar  
    20     9    26 1   
    21    10    11 1   
    22    11    12 2   
    23    11    13 1   
    24    13    21 1   
    25    14    17 1   
    26    14    18 1   
    27    14    19 1   
@<TRIPOS>SUBSTRUCTURE
     1 NGJ         1 TEMP              0 ****  ****    0 ROOT
