@<TRIPOS>MOLECULE
NGK
   33    33     1     0     0
SMALL
abcg2


@<TRIPOS>ATOM
      1 C1           1.6380     0.2340     1.5230 c6         1 NGK       0.375300
      2 C2           0.1260     0.0180     1.6230 c6         1 NGK       0.046700
      3 C3          -0.3330    -1.0660     0.6400 c6         1 NGK       0.158300
      4 C4           0.1300    -0.7010    -0.7660 c6         1 NGK       0.216300
      5 C5           1.6440    -0.5070    -0.7420 c6         1 NGK       0.158300
      6 C6           2.2200    -0.1090    -2.0830 c3         1 NGK       0.158600
      7 C7          -1.0420     0.4820     3.7470 c          1 NGK       0.595100
      8 C8          -1.2770    -0.0300     5.1450 c3         1 NGK      -0.182100
      9 N           -0.2640    -0.3040     2.9730 ns         1 NGK      -0.507900
     10 O1           2.2670    -0.8920     2.0500 oh         1 NGK      -0.701000
     11 O3          -1.7240    -1.2200     0.6520 oh         1 NGK      -0.602000
     12 O4          -0.5080     0.5040    -1.1710 os         1 NGK      -0.582700
     13 O5           2.0100     0.4900     0.1990 os         1 NGK      -0.452000
     14 O6           3.6250    -0.1620    -1.9910 oh         1 NGK      -0.738000
     15 O7          -1.5300     1.5330     3.3580 o          1 NGK      -0.589100
     16 S           -1.4650     0.4990    -2.5100 s6         1 NGK       1.496300
     17 O1S         -1.9420     1.8800    -2.4900 o          1 NGK      -0.705867
     18 O2S         -2.4970    -0.5110    -2.2780 o          1 NGK      -0.705867
     19 O3S         -0.5790     0.1750    -3.6320 o          1 NGK      -0.705867
     20 H1           1.9170     1.1380     2.0760 h2         1 NGK       0.060700
     21 H2          -0.3640     0.9560     1.3590 h1         1 NGK       0.138700
     22 H3           0.1670    -2.0110     0.9000 h1         1 NGK       0.016700
     23 H4          -0.1030    -1.5280    -1.4470 h1         1 NGK       0.062700
     24 H5           2.0830    -1.4760    -0.4650 h1         1 NGK       0.036700
     25 H6C1         1.8350    -0.8050    -2.8380 h1         1 NGK       0.060200
     26 H6C2         1.8680     0.8910    -2.3580 h1         1 NGK       0.060200
     27 H8C1        -2.3480    -0.1380     5.3140 hc         1 NGK       0.052367
     28 H8C2        -0.7970    -0.9860     5.3500 hc         1 NGK       0.052367
     29 H8C3        -0.9080     0.7030     5.8620 hc         1 NGK       0.052367
     30 H            0.1450    -1.1250     3.3900 hn         1 NGK       0.307500
     31 HA           3.1940    -0.6900     2.2170 ho         1 NGK       0.447000
     32 HB          -1.9820    -1.4980     1.5370 ho         1 NGK       0.425000
     33 H6           3.9880     0.1440    -2.8260 ho         1 NGK       0.495000
@<TRIPOS>BOND
     1     1     2 1   
     2     1    10 1   
     3     1    13 1   
     4     1    20 1   
     5     2     3 1   
     6     2     9 1   
     7     2    21 1   
     8     3     4 1   
     9     3    11 1   
    10     3    22 1   
    11     4     5 1   
    12     4    12 1   
    13     4    23 1   
    14     5     6 1   
    15     5    13 1   
    16     5    24 1   
    17     6    14 1   
    18     6    25 1   
    19     6    26 1   
    20     7     8 1   
    21     7     9 1   
    22     7    15 2   
    23     8    27 1   
    24     8    28 1   
    25     8    29 1   
    26     9    30 1   
    27    10    31 1   
    28    11    32 1   
    29    12    16 1   
    30    14    33 1   
    31    16    17 1   
    32    16    18 1   
    33    16    19 1   
@<TRIPOS>SUBSTRUCTURE
     1 NGK         1 TEMP              0 ****  ****    0 ROOT
