@<TRIPOS>MOLECULE
NGK
   33    33     1     0     0
SMALL
No Charge or Current Charge


@<TRIPOS>ATOM
      1 C1           1.5080     0.2460     1.6070 c6         1 NGK       0.375300
      2 C2          -0.0360     0.0150     1.6420 c6         1 NGK       0.046700
      3 C3          -0.4300    -1.0800     0.6060 c6         1 NGK       0.158300
      4 C4           0.0740    -0.7110    -0.8330 c6         1 NGK       0.216300
      5 C5           1.6230    -0.4940    -0.7230 c6         1 NGK       0.158300
      6 C6           2.2930    -0.0920    -2.0780 c3         1 NGK       0.158600
      7 C7          -0.7710     0.5710     4.0090 c          1 NGK       0.595100
      8 C8          -1.1430    -0.0450     5.3510 c3         1 NGK      -0.182100
      9 N           -0.5110    -0.3340     3.0080 ns         1 NGK      -0.507900
     10 O1           2.2380    -0.8870     2.0730 oh         1 NGK      -0.701000
     11 O3          -1.8540    -1.2930     0.6450 oh         1 NGK      -0.602000
     12 O4          -0.5940     0.4810    -1.3260 os         1 NGK      -0.582700
     13 O5           1.9490     0.5220     0.2700 os         1 NGK      -0.452000
     14 O6           3.7310     0.0390    -1.9880 oh         1 NGK      -0.738000
     15 O7          -0.7090     1.7770     3.8290 o          1 NGK      -0.589100
     16 S           -1.4120     0.3960    -2.7490 s6         1 NGK       1.496300
     17 O1S         -1.8710     1.7740    -2.9720 o          1 NGK      -0.705867
     18 O2S         -2.4900    -0.5690    -2.4970 o          1 NGK      -0.705867
     19 O3S         -0.4060    -0.0710    -3.7120 o          1 NGK      -0.705867
     20 H1           1.7450     1.1140     2.2430 h2         1 NGK       0.060700
     21 H2          -0.5090     0.9600     1.3350 h1         1 NGK       0.138700
     22 H3           0.0660    -2.0170     0.9010 h1         1 NGK       0.016700
     23 H4          -0.1200    -1.5630    -1.5020 h1         1 NGK       0.062700
     24 H5           2.0800    -1.4470    -0.4170 h1         1 NGK       0.036700
     25 H6C1         2.0310    -0.8550    -2.8240 h1         1 NGK       0.060200
     26 H6C2         1.8480     0.8560    -2.4100 h1         1 NGK       0.060200
     27 H8C1        -1.9950    -0.7210     5.2110 hc         1 NGK       0.052367
     28 H8C2        -0.3490    -0.7340     5.6600 hc         1 NGK       0.052367
     29 H8C3        -1.3470     0.7080     6.1210 hc         1 NGK       0.052367
     30 H           -0.5210    -1.3120     3.2770 hn         1 NGK       0.307500
     31 HA           3.1750    -0.6770     1.8740 ho         1 NGK       0.447000
     32 HB          -2.1460    -1.0420     1.5460 ho         1 NGK       0.425000
     33 H6           4.0450     0.3740    -2.8600 ho         1 NGK       0.495000
@<TRIPOS>BOND
     1     1     2 1   
     2     1    10 1   
     3     1    13 1   
     4     1    20 1   
     5     2     3 1   
     6     2     9 1   
     7     2    21 1   
     8     3     4 1   
     9     3    11 1   
    10     3    22 1   
    11     4     5 1   
    12     4    12 1   
    13     4    23 1   
    14     5     6 1   
    15     5    13 1   
    16     5    24 1   
    17     6    14 1   
    18     6    25 1   
    19     6    26 1   
    20     7     8 1   
    21     7     9 1   
    22     7    15 2   
    23     8    27 1   
    24     8    28 1   
    25     8    29 1   
    26     9    30 1   
    27    10    31 1   
    28    11    32 1   
    29    12    16 1   
    30    14    33 1   
    31    16    17 1   
    32    16    18 1   
    33    16    19 1   
@<TRIPOS>SUBSTRUCTURE
     1 NGK         1 TEMP              0 ****  ****    0 ROOT
