@<TRIPOS>MOLECULE
NGM
  105   111     1     0     0
SMALL
No Charge or Current Charge


@<TRIPOS>ATOM
      1 C1          19.0170     3.1900    20.4220 ca         1 NGM       0.163100
      2 C2          18.0360     2.7800    21.3530 ca         1 NGM      -0.130300
      3 C3          16.9150     2.0650    20.8980 ca         1 NGM      -0.083000
      4 C4          16.7710     1.7460    19.5440 ca         1 NGM       0.181100
      5 C5          17.5740     1.8090    17.1310 c          1 NGM       0.622300
      6 C6          18.1520     2.5350    14.7380 ca         1 NGM       0.223100
      7 C7          18.6740     3.0980    12.2910 c6         1 NGM       0.233600
      8 C8          19.7130     3.7980    11.3650 c6         1 NGM      -0.093400
      9 C9          20.4030     5.0290    12.0000 c6         1 NGM       0.209000
     10 C10         21.0900     4.5810    13.3190 c6         1 NGM      -0.120400
     11 C11         20.4370     3.8560    15.6460 ca         1 NGM      -0.118000
     12 C12         19.9650     3.2580    18.0470 c          1 NGM       0.590300
     13 C13         19.3980     6.1890    12.2530 c3         1 NGM      -0.122100
     14 C14         22.3890     3.7810    13.0940 c          1 NGM       0.608100
     15 C16         18.8940     2.8600    19.0450 ca         1 NGM      -0.132600
     16 C17         17.7480     2.1430    18.5980 ca         1 NGM      -0.225600
     17 C18         18.4510     2.5240    16.1250 ca         1 NGM      -0.181600
     18 C19         19.0030     3.1660    13.8040 ca         1 NGM      -0.159300
     19 C20         20.1500     3.8410    14.2740 ca         1 NGM       0.012700
     20 C21         19.6050     3.2060    16.5800 ca         1 NGM      -0.075600
     21 C22         17.8060     1.9950    23.7970 c3         1 NGM      -0.082100
     22 C25         16.5450     6.6710     9.2740 c3         1 NGM      -0.087100
     23 C28         14.6080     4.6370    12.9790 c3         1 NGM      -0.110100
     24 C30         20.1650     4.3930    22.2270 c6         1 NGM       0.392300
     25 C31         19.4680     5.7890    22.4510 c6         1 NGM       0.091300
     26 C32         17.9110     5.6540    22.3090 c6         1 NGM       0.176500
     27 C33         17.4140     4.4780    23.2020 c6         1 NGM       0.165300
     28 C34         18.1860     3.1620    22.8410 c6         1 NGM       0.189300
     29 C35         16.6750     3.2930    10.8590 c6         1 NGM       0.362300
     30 C36         15.1520     2.9650    11.0410 c6         1 NGM       0.116300
     31 C37         14.3190     4.2290    11.4910 c6         1 NGM       0.185000
     32 C38         14.6390     5.4240    10.5070 c6         1 NGM       0.153300
     33 C39         16.1820     5.6180    10.3510 c6         1 NGM       0.168300
     34 N1          17.0990     6.8990    22.5900 n3         1 NGM      -0.751600
     35 O1          20.0960     3.9350    20.8600 os         1 NGM      -0.316100
     36 O2          19.5880     3.3870    23.0830 os         1 NGM      -0.446000
     37 O4          15.6610     1.0490    19.1670 oh         1 NGM      -0.550100
     38 O5          16.7610     0.9510    16.8020 o          1 NGM      -0.554100
     39 O6          16.9970     1.9940    14.2660 oh         1 NGM      -0.499100
     40 O7          17.3240     3.5970    12.1150 os         1 NGM      -0.493000
     41 O9          21.3680     5.5250    11.0720 oh         1 NGM      -0.657000
     42 O10         23.4990     4.5720    12.9250 os         1 NGM      -0.442100
     43 O14         22.4270     2.5570    13.1220 o          1 NGM      -0.476000
     44 O12         21.1010     3.5740    18.3850 o          1 NGM      -0.486100
     45 O15         20.0010     6.8070    21.5740 oh         1 NGM      -0.689000
     46 O16         15.9880     4.3810    23.0570 oh         1 NGM      -0.686000
     47 O8          16.8340     4.3960     9.9490 os         1 NGM      -0.463000
     48 O11         14.5890     2.4090     9.8160 os         1 NGM      -0.430000
     49 O3          12.8890     3.9250    11.4300 os         1 NGM      -0.449000
     50 O13         14.0520     6.6970    10.9130 os         1 NGM      -0.457000
     51 H3          16.1340     1.7620    21.5890 ha         1 NGM       0.137000
     52 H7          18.6630     2.0330    12.0140 h1         1 NGM       0.040700
     53 H81         20.4830     3.0590    11.1100 hc         1 NGM       0.081200
     54 H82         19.2690     4.0760    10.4040 hc         1 NGM       0.081200
     55 H10         21.4260     5.5190    13.7790 hc         1 NGM       0.087700
     56 H11         21.3230     4.3870    15.9910 ha         1 NGM       0.146000
     57 H131        19.8940     7.0660    12.6850 hc         1 NGM       0.051367
     58 H132        18.9250     6.5100    11.3180 hc         1 NGM       0.051367
     59 H133        18.5980     5.8970    12.9440 hc         1 NGM       0.051367
     60 H151        25.5630     4.6720    12.6000 h1         1 NGM       0.050700
     61 H152        25.0270     3.2910    13.5820 h1         1 NGM       0.050700
     62 H153        24.7490     3.2980    11.8220 h1         1 NGM       0.050700
     63 H221        18.0850     2.2280    24.8310 hc         1 NGM       0.053033
     64 H222        16.7300     1.7930    23.7920 hc         1 NGM       0.053033
     65 H223        18.3220     1.0700    23.5130 hc         1 NGM       0.053033
     66 H231        16.8230     7.3770    20.5260 h1         1 NGM       0.028867
     67 H232        16.2220     8.6010    21.6600 h1         1 NGM       0.028867
     68 H233        17.9650     8.4460    21.3810 h1         1 NGM       0.028867
     69 H241        17.2070     6.8080    24.7300 h1         1 NGM       0.028867
     70 H242        18.3230     7.9730    23.9790 h1         1 NGM       0.028867
     71 H243        16.5880     8.3340    24.0820 h1         1 NGM       0.028867
     72 H252        16.1120     6.4090     8.3010 hc         1 NGM       0.047700
     73 H253        16.1760     7.6650     9.5500 hc         1 NGM       0.047700
     74 H261        12.3380     7.8870    10.9980 h1         1 NGM       0.032033
     75 H262        12.2140     6.4810     9.9210 h1         1 NGM       0.032033
     76 H263        12.1460     6.2720    11.6920 h1         1 NGM       0.032033
     77 H271        11.2730     2.7390    12.0240 h1         1 NGM       0.028033
     78 H272        12.8180     1.8780    11.9370 h1         1 NGM       0.028033
     79 H273        12.4880     2.9990    13.2840 h1         1 NGM       0.028033
     80 H281        13.8390     5.3190    13.3590 hc         1 NGM       0.050033
     81 H282        14.6320     3.7650    13.6440 hc         1 NGM       0.050033
     82 H283        15.5670     5.1520    13.0980 hc         1 NGM       0.050033
     83 H291        14.4850     0.7780     8.5150 h1         1 NGM       0.031700
     84 H292        16.1200     1.1750     9.0700 h1         1 NGM       0.031700
     85 H293        14.9700     0.3770    10.1750 h1         1 NGM       0.031700
     86 H30         21.2270     4.5160    22.4890 h2         1 NGM       0.120700
     87 H31         19.6800     6.0750    23.4920 h1         1 NGM       0.043700
     88 H32         17.7140     5.3600    21.2680 h1         1 NGM       0.092700
     89 H33         17.6510     4.7170    24.2490 h1         1 NGM       0.041700
     90 H1          17.1630     2.4090    10.4240 h2         1 NGM       0.058700
     91 H2          15.0670     2.1970    11.8230 h1         1 NGM       0.060700
     92 H4          14.2390     5.1630     9.5160 h1         1 NGM       0.074700
     93 H5          16.6110     5.9520    11.3060 h1         1 NGM       0.052700
     94 HO4         15.7850     0.8230    18.2090 ho         1 NGM       0.519000
     95 HO6         16.8410     2.4410    13.4040 ho         1 NGM       0.470000
     96 HO9         21.8150     6.2860    11.5000 ho         1 NGM       0.451000
     97 H15         19.4690     7.6170    21.7440 ho         1 NGM       0.506000
     98 H16         15.7260     5.3210    22.8910 ho         1 NGM       0.504000
     99 H251        17.6320     6.7460     9.1480 hc         1 NGM       0.047700
    100 C15         24.7690     3.9240    12.7230 c3         1 NGM       0.151900
    101 C23         17.0310     7.8800    21.4800 c3         1 NGM       0.176100
    102 C24         17.3190     7.5330    23.9150 c3         1 NGM       0.176100
    103 C26         12.6190     6.8340    10.8780 c3         1 NGM       0.152900
    104 C27         12.3500     2.8330    12.2080 c3         1 NGM       0.151900
    105 C29         15.0680     1.1240     9.3770 c3         1 NGM       0.139900
@<TRIPOS>BOND
     1     1     2 ar  
     2     1    15 ar  
     3     1    35 1   
     4     2     3 ar  
     5     2    28 1   
     6     3     4 ar  
     7     3    51 1   
     8     4    16 ar  
     9     4    37 1   
    10     5    16 1   
    11     5    17 1   
    12     5    38 2   
    13     6    17 ar  
    14     6    18 ar  
    15     6    39 1   
    16     7     8 1   
    17     7    18 1   
    18     7    40 1   
    19     7    52 1   
    20     8     9 1   
    21     8    53 1   
    22     8    54 1   
    23     9    10 1   
    24     9    13 1   
    25     9    41 1   
    26    10    14 1   
    27    10    19 1   
    28    10    55 1   
    29    11    19 ar  
    30    11    20 ar  
    31    11    56 1   
    32    12    15 1   
    33    12    20 1   
    34    12    44 2   
    35    13    57 1   
    36    13    58 1   
    37    13    59 1   
    38    14    42 1   
    39    14    43 2   
    40    15    16 ar  
    41    17    20 ar  
    42    18    19 ar  
    43    21    28 1   
    44    21    63 1   
    45    21    64 1   
    46    21    65 1   
    47    22    33 1   
    48    22    72 1   
    49    22    73 1   
    50    22    99 1   
    51    23    31 1   
    52    23    80 1   
    53    23    81 1   
    54    23    82 1   
    55    24    25 1   
    56    24    35 1   
    57    24    36 1   
    58    24    86 1   
    59    25    26 1   
    60    25    45 1   
    61    25    87 1   
    62    26    27 1   
    63    26    34 1   
    64    26    88 1   
    65    27    28 1   
    66    27    46 1   
    67    27    89 1   
    68    28    36 1   
    69    29    30 1   
    70    29    40 1   
    71    29    47 1   
    72    29    90 1   
    73    30    31 1   
    74    30    48 1   
    75    30    91 1   
    76    31    32 1   
    77    31    49 1   
    78    32    33 1   
    79    32    50 1   
    80    32    92 1   
    81    33    47 1   
    82    33    93 1   
    83    34   101 1   
    84    34   102 1   
    85    37    94 1   
    86    39    95 1   
    87    41    96 1   
    88    42   100 1   
    89    45    97 1   
    90    46    98 1   
    91    48   105 1   
    92    49   104 1   
    93    50   103 1   
    94    60   100 1   
    95    61   100 1   
    96    62   100 1   
    97    66   101 1   
    98    67   101 1   
    99    68   101 1   
   100    69   102 1   
   101    70   102 1   
   102    71   102 1   
   103    74   103 1   
   104    75   103 1   
   105    76   103 1   
   106    77   104 1   
   107    78   104 1   
   108    79   104 1   
   109    83   105 1   
   110    84   105 1   
   111    85   105 1   
@<TRIPOS>SUBSTRUCTURE
     1 NGM         1 TEMP              0 ****  ****    0 ROOT
