@<TRIPOS>MOLECULE
NGM
  105   111     1     0     0
SMALL
abcg2


@<TRIPOS>ATOM
      1 C1          19.1090     3.4380    20.3340 ca         1 NGM       0.163100
      2 C2          18.3820     2.6980    21.2880 ca         1 NGM      -0.130300
      3 C3          17.4550     1.7790    20.8670 ca         1 NGM      -0.083000
      4 C4          17.2200     1.5440    19.5080 ca         1 NGM       0.181100
      5 C5          17.6810     1.9930    17.1290 c          1 NGM       0.622300
      6 C6          18.2100     2.5560    14.7300 ca         1 NGM       0.223100
      7 C7          18.6200     3.1520    12.3110 c6         1 NGM       0.233600
      8 C8          19.6660     3.7680    11.3920 c6         1 NGM      -0.093400
      9 C9          20.2610     5.0850    11.8710 c6         1 NGM       0.209000
     10 C10         20.8600     4.8920    13.2830 c6         1 NGM      -0.120400
     11 C11         20.1620     4.3320    15.5850 ca         1 NGM      -0.118000
     12 C12         19.6940     3.9340    17.9560 c          1 NGM       0.590300
     13 C13         19.2440     6.2190    11.9180 c3         1 NGM      -0.122100
     14 C14         22.1870     4.1600    13.1900 c          1 NGM       0.608100
     15 C16         18.9150     3.2070    18.9710 ca         1 NGM      -0.132600
     16 C17         17.9530     2.2560    18.5500 ca         1 NGM      -0.225600
     17 C18         18.4320     2.7350    16.1090 ca         1 NGM      -0.181600
     18 C19         18.9610     3.2810    13.7790 ca         1 NGM      -0.159300
     19 C20         19.9510     4.1450    14.2230 ca         1 NGM       0.012700
     20 C21         19.4120     3.6510    16.5180 ca         1 NGM      -0.075600
     21 C22         18.6900     1.6770    23.5720 c3         1 NGM      -0.082100
     22 C25         16.7070     5.1360     8.1620 c3         1 NGM      -0.087100
     23 C28         15.0930     5.7670    12.3660 c3         1 NGM      -0.110100
     24 C30         20.1020     4.6590    22.1040 c6         1 NGM       0.392300
     25 C31         19.1350     5.7660    22.5210 c6         1 NGM       0.091300
     26 C32         17.6740     5.2920    22.5750 c6         1 NGM       0.176500
     27 C33         17.6020     3.9560    23.3250 c6         1 NGM       0.165300
     28 C34         18.6430     2.9570    22.7550 c6         1 NGM       0.189300
     29 C35         16.4760     3.1280    11.2150 c6         1 NGM       0.362300
     30 C36         15.0130     3.3410    11.6350 c6         1 NGM       0.116300
     31 C37         14.5080     4.7770    11.3560 c6         1 NGM       0.185000
     32 C38         14.8740     5.1490     9.9080 c6         1 NGM       0.153300
     33 C39         16.3580     4.9070     9.6180 c6         1 NGM       0.168300
     34 N1          16.7470     6.2580    23.1340 n3         1 NGM      -0.751600
     35 O1          19.9980     4.3600    20.7240 os         1 NGM      -0.316100
     36 O2          19.9410     3.5280    22.8780 os         1 NGM      -0.446000
     37 O4          16.2970     0.6360    19.2090 oh         1 NGM      -0.550100
     38 O5          16.8300     1.1570    16.8240 o          1 NGM      -0.554100
     39 O6          17.2770     1.6820    14.3600 oh         1 NGM      -0.499100
     40 O7          17.3180     3.7150    12.1660 os         1 NGM      -0.493000
     41 O9          21.2880     5.3820    10.9470 oh         1 NGM      -0.657000
     42 O10         23.2090     4.9970    13.2510 os         1 NGM      -0.442100
     43 O14         22.3000     2.9660    13.0780 o          1 NGM      -0.476000
     44 O12         20.5530     4.7450    18.2370 o          1 NGM      -0.486100
     45 O15         19.3130     6.8470    21.6410 oh         1 NGM      -0.689000
     46 O16         16.3020     3.4500    23.2130 oh         1 NGM      -0.686000
     47 O8          16.7110     3.5630     9.9170 os         1 NGM      -0.463000
     48 O11         14.2130     2.4510    10.8970 os         1 NGM      -0.430000
     49 O3          13.0950     4.8100    11.3850 os         1 NGM      -0.449000
     50 O13         14.6070     6.5050     9.6500 os         1 NGM      -0.457000
     51 H3          16.8820     1.2050    21.5820 ha         1 NGM       0.137000
     52 H7          18.5790     2.0870    12.0320 h1         1 NGM       0.040700
     53 H81         20.4700     3.0370    11.2800 hc         1 NGM       0.081200
     54 H82         19.2330     3.8980    10.3990 hc         1 NGM       0.081200
     55 H10         21.0490     5.8820    13.7100 hc         1 NGM       0.087700
     56 H11         20.9230     5.0270    15.9110 ha         1 NGM       0.146000
     57 H131        19.7390     7.1580    12.1770 hc         1 NGM       0.051367
     58 H132        18.7650     6.3440    10.9480 hc         1 NGM       0.051367
     59 H133        18.4680     6.0450    12.6610 hc         1 NGM       0.051367
     60 H151        25.2060     5.2820    13.2000 h1         1 NGM       0.050700
     61 H152        24.7290     3.7330    13.9260 h1         1 NGM       0.050700
     62 H153        24.6520     3.9500    12.1640 h1         1 NGM       0.050700
     63 H221        18.9480     1.9070    24.6060 hc         1 NGM       0.053033
     64 H222        17.7360     1.1530    23.5780 hc         1 NGM       0.053033
     65 H223        19.4370     0.9930    23.1690 hc         1 NGM       0.053033
     66 H231        15.8260     6.6380    21.3010 h1         1 NGM       0.028867
     67 H232        15.2640     7.6310    22.6400 h1         1 NGM       0.028867
     68 H233        16.8050     7.9960    21.8670 h1         1 NGM       0.028867
     69 H241        17.5400     6.1840    25.0760 h1         1 NGM       0.028867
     70 H242        17.9040     7.6940    24.2310 h1         1 NGM       0.028867
     71 H243        16.2750     7.3750    24.8220 h1         1 NGM       0.028867
     72 H252        16.1310     4.4780     7.5090 hc         1 NGM       0.047700
     73 H253        16.5060     6.1660     7.8740 hc         1 NGM       0.047700
     74 H261        13.4380     7.8340     8.6740 h1         1 NGM       0.032033
     75 H262        13.5090     6.2440     7.9010 h1         1 NGM       0.032033
     76 H263        12.5390     6.4760     9.3670 h1         1 NGM       0.032033
     77 H271        11.3860     4.5470    12.4160 h1         1 NGM       0.028033
     78 H272        12.7230     3.5870    13.0470 h1         1 NGM       0.028033
     79 H273        12.6540     5.3290    13.3630 h1         1 NGM       0.028033
     80 H281        14.5770     6.7250    12.2970 hc         1 NGM       0.050033
     81 H282        14.9880     5.4010    13.3870 hc         1 NGM       0.050033
     82 H283        16.1520     5.9520    12.2080 hc         1 NGM       0.050033
     83 H291        13.4040     0.5970    10.8560 h1         1 NGM       0.031700
     84 H292        15.0080     0.6430    11.5960 h1         1 NGM       0.031700
     85 H293        13.6070     1.2580    12.4890 h1         1 NGM       0.031700
     86 H30         21.1290     5.0040    22.2390 h2         1 NGM       0.120700
     87 H31         19.4480     6.0340    23.5390 h1         1 NGM       0.043700
     88 H32         17.3340     5.1110    21.5480 h1         1 NGM       0.092700
     89 H33         17.8780     4.1160    24.3780 h1         1 NGM       0.041700
     90 H1          16.6700     2.0470    11.1750 h2         1 NGM       0.058700
     91 H2          14.9360     3.1260    12.7100 h1         1 NGM       0.060700
     92 H4          14.2910     4.5050     9.2330 h1         1 NGM       0.074700
     93 H5          16.9520     5.5970    10.2290 h1         1 NGM       0.052700
     94 HO4         16.2550     0.5900    18.2220 ho         1 NGM       0.519000
     95 HO6         17.2700     1.5300    13.4100 ho         1 NGM       0.470000
     96 HO9         21.6220     6.2690    11.1230 ho         1 NGM       0.451000
     97 H15         19.2140     7.6680    22.1310 ho         1 NGM       0.506000
     98 H16         16.1350     2.8470    23.9440 ho         1 NGM       0.504000
     99 H251        17.7670     4.9460     7.9910 hc         1 NGM       0.047700
    100 C15         24.5200     4.4430    13.1260 c3         1 NGM       0.151900
    101 C23         16.1500     7.1750    22.1920 c3         1 NGM       0.176100
    102 C24         17.1450     6.9060    24.3600 c3         1 NGM       0.176100
    103 C26         13.4680     6.7610     8.8660 c3         1 NGM       0.152900
    104 C27         12.4580     4.5570    12.6130 c3         1 NGM       0.151900
    105 C29         14.0620     1.1860    11.4940 c3         1 NGM       0.139900
@<TRIPOS>BOND
     1     1     2 ar  
     2     1    15 ar  
     3     1    35 1   
     4     2     3 ar  
     5     2    28 1   
     6     3     4 ar  
     7     3    51 1   
     8     4    16 ar  
     9     4    37 1   
    10     5    16 1   
    11     5    17 1   
    12     5    38 2   
    13     6    17 ar  
    14     6    18 ar  
    15     6    39 1   
    16     7     8 1   
    17     7    18 1   
    18     7    40 1   
    19     7    52 1   
    20     8     9 1   
    21     8    53 1   
    22     8    54 1   
    23     9    10 1   
    24     9    13 1   
    25     9    41 1   
    26    10    14 1   
    27    10    19 1   
    28    10    55 1   
    29    11    19 ar  
    30    11    20 ar  
    31    11    56 1   
    32    12    15 1   
    33    12    20 1   
    34    12    44 2   
    35    13    57 1   
    36    13    58 1   
    37    13    59 1   
    38    14    42 1   
    39    14    43 2   
    40    15    16 ar  
    41    17    20 ar  
    42    18    19 ar  
    43    21    28 1   
    44    21    63 1   
    45    21    64 1   
    46    21    65 1   
    47    22    33 1   
    48    22    72 1   
    49    22    73 1   
    50    22    99 1   
    51    23    31 1   
    52    23    80 1   
    53    23    81 1   
    54    23    82 1   
    55    24    25 1   
    56    24    35 1   
    57    24    36 1   
    58    24    86 1   
    59    25    26 1   
    60    25    45 1   
    61    25    87 1   
    62    26    27 1   
    63    26    34 1   
    64    26    88 1   
    65    27    28 1   
    66    27    46 1   
    67    27    89 1   
    68    28    36 1   
    69    29    30 1   
    70    29    40 1   
    71    29    47 1   
    72    29    90 1   
    73    30    31 1   
    74    30    48 1   
    75    30    91 1   
    76    31    32 1   
    77    31    49 1   
    78    32    33 1   
    79    32    50 1   
    80    32    92 1   
    81    33    47 1   
    82    33    93 1   
    83    34   101 1   
    84    34   102 1   
    85    37    94 1   
    86    39    95 1   
    87    41    96 1   
    88    42   100 1   
    89    45    97 1   
    90    46    98 1   
    91    48   105 1   
    92    49   104 1   
    93    50   103 1   
    94    60   100 1   
    95    61   100 1   
    96    62   100 1   
    97    66   101 1   
    98    67   101 1   
    99    68   101 1   
   100    69   102 1   
   101    70   102 1   
   102    71   102 1   
   103    74   103 1   
   104    75   103 1   
   105    76   103 1   
   106    77   104 1   
   107    78   104 1   
   108    79   104 1   
   109    83   105 1   
   110    84   105 1   
   111    85   105 1   
@<TRIPOS>SUBSTRUCTURE
     1 NGM         1 TEMP              0 ****  ****    0 ROOT
