@<TRIPOS>MOLECULE
NGQ
   22    21     1     0     0
SMALL
No Charge or Current Charge


@<TRIPOS>ATOM
      1 C            1.2970    -1.6870     0.2030 c          1 NGQ       0.712000
      2 N            1.1610     0.8350    -0.3210 nu         1 NGQ      -0.836400
      3 O1           1.5500    -2.3430     1.2060 o          1 NGQ      -0.751500
      4 O2           1.6530    -2.0330    -0.9190 o          1 NGQ      -0.751500
      5 CA           0.5060    -0.3270     0.3670 c3         1 NGQ       0.066500
      6 CB          -0.9580    -0.4900    -0.1260 c3         1 NGQ      -0.047400
      7 CD          -3.3520     0.3410    -0.1490 c          1 NGQ       0.712000
      8 CF           2.3060     1.3830     0.0770 c2         1 NGQ       0.788100
      9 NF           2.8650     1.1900     1.1780 n2         1 NGQ      -0.888100
     10 CG          -1.9160     0.6500     0.3150 c3         1 NGQ      -0.197400
     11 NG           2.6380     2.2680    -0.8350 nv         1 NGQ      -1.068200
     12 OE1         -3.6980     0.7220    -1.2570 o          1 NGQ      -0.765000
     13 OE2         -4.0690    -0.3150     0.5910 o          1 NGQ      -0.765000
     14 HN           1.1100     0.8190    -1.3300 hn         1 NGQ       0.453000
     15 HA           0.4640    -0.1280     1.4470 h1         1 NGQ       0.063700
     16 HB          -0.9710    -0.5850    -1.2190 hc         1 NGQ       0.045700
     17 HBA         -1.3480    -1.4360     0.2700 hc         1 NGQ       0.045700
     18 HNF          3.6940     1.7890     1.2210 hn         1 NGQ       0.324400
     19 HG          -1.8640     0.6770     1.4100 hc         1 NGQ       0.011200
     20 HGA         -1.5480     1.5640    -0.1670 hc         1 NGQ       0.011200
     21 HNG          1.8220     2.7360    -1.2040 hn         1 NGQ       0.420500
     22 HNGA         3.3700     2.8970    -0.5360 hn         1 NGQ       0.420500
@<TRIPOS>BOND
     1     1     3 1   
     2     1     4 1   
     3     1     5 1   
     4     2     5 1   
     5     2     8 1   
     6     2    14 1   
     7     5     6 1   
     8     5    15 1   
     9     6    10 1   
    10     6    16 1   
    11     6    17 1   
    12     7    10 1   
    13     7    12 1   
    14     7    13 1   
    15     8     9 2   
    16     8    11 1   
    17     9    18 1   
    18    10    19 1   
    19    10    20 1   
    20    11    21 1   
    21    11    22 1   
@<TRIPOS>SUBSTRUCTURE
     1 NGQ         1 TEMP              0 ****  ****    0 ROOT
