@<TRIPOS>MOLECULE
NGQ
   22    21     1     0     0
SMALL
abcg2


@<TRIPOS>ATOM
      1 C            1.3720    -1.5790    -0.0790 c          1 NGQ       0.712000
      2 N            1.0120     0.8800    -0.3160 nu         1 NGQ      -0.836400
      3 O1           1.1980    -2.5820     0.6480 o          1 NGQ      -0.751500
      4 O2           2.1260    -1.5010    -1.0660 o          1 NGQ      -0.751500
      5 CA           0.5180    -0.3420     0.2780 c3         1 NGQ       0.066500
      6 CB          -0.9380    -0.5700    -0.1320 c3         1 NGQ      -0.047400
      7 CD          -3.3660     0.3260    -0.0130 c          1 NGQ       0.712000
      8 CF           2.1940     1.4140     0.1220 c2         1 NGQ       0.788100
      9 NF           2.7120     1.0580     1.2400 n2         1 NGQ      -0.888100
     10 CG          -1.8800     0.5260     0.3370 c3         1 NGQ      -0.197400
     11 NG           2.7360     2.3400    -0.7530 nv         1 NGQ      -1.068200
     12 OE1         -3.6790    -0.6860    -0.6700 o          1 NGQ      -0.765000
     13 OE2         -4.1460     1.2120     0.3980 o          1 NGQ      -0.765000
     14 HN           0.9010     0.9040    -1.3200 hn         1 NGQ       0.453000
     15 HA           0.5520    -0.2140     1.3630 h1         1 NGQ       0.063700
     16 HB          -0.9990    -0.6780    -1.2200 hc         1 NGQ       0.045700
     17 HBA         -1.2560    -1.5280     0.2820 hc         1 NGQ       0.045700
     18 HNF          3.5350     1.6150     1.4420 hn         1 NGQ       0.324400
     19 HG          -1.7960     0.6350     1.4250 hc         1 NGQ       0.011200
     20 HGA         -1.5600     1.4920    -0.0660 hc         1 NGQ       0.011200
     21 HNG          2.0760     2.8300    -1.3370 hn         1 NGQ       0.420500
     22 HNGA         3.4000     2.9750    -0.3400 hn         1 NGQ       0.420500
@<TRIPOS>BOND
     1     1     3 1   
     2     1     4 1   
     3     1     5 1   
     4     2     5 1   
     5     2     8 1   
     6     2    14 1   
     7     5     6 1   
     8     5    15 1   
     9     6    10 1   
    10     6    16 1   
    11     6    17 1   
    12     7    10 1   
    13     7    12 1   
    14     7    13 1   
    15     8     9 2   
    16     8    11 1   
    17     9    18 1   
    18    10    19 1   
    19    10    20 1   
    20    11    21 1   
    21    11    22 1   
@<TRIPOS>SUBSTRUCTURE
     1 NGQ         1 TEMP              0 ****  ****    0 ROOT
