@<TRIPOS>MOLECULE
NGS
   33    33     1     0     0
SMALL
abcg2


@<TRIPOS>ATOM
      1 C1           0.9390     0.1000     6.7960 c6         1 NGS       0.388300
      2 C2          -0.0290    -1.0040     7.2110 c6         1 NGS       0.030700
      3 C3          -0.9140    -0.5330     8.3710 c6         1 NGS       0.162300
      4 C4          -0.0650     0.0210     9.5080 c6         1 NGS       0.143300
      5 C5           0.9000     1.0710     8.9380 c6         1 NGS       0.137300
      6 C6           1.8520     1.6160     9.9810 c3         1 NGS       0.229600
      7 O1           1.8020    -0.3920     5.8440 oh         1 NGS      -0.634000
      8 O3          -1.6990    -1.5840     8.8670 oh         1 NGS      -0.642000
      9 O5           1.6860     0.4990     7.9180 os         1 NGS      -0.441000
     10 O6           2.5770     2.6800     9.3860 os         1 NGS      -0.591700
     11 N2          -0.8520    -1.4190     6.1030 ns         1 NGS      -0.508900
     12 C7          -0.6890    -2.5820     5.4330 c          1 NGS       0.607100
     13 O7           0.1060    -3.4430     5.7750 o          1 NGS      -0.586100
     14 C8          -1.5670    -2.7520     4.2200 c3         1 NGS      -0.182100
     15 S            4.0980     2.9730     9.9440 s6         1 NGS       1.497300
     16 O7A          4.8760     1.7750     9.6170 o          1 NGS      -0.706867
     17 O8           3.9450     3.1990    11.3830 o          1 NGS      -0.706867
     18 O9           4.4440     4.1590     9.1660 o          1 NGS      -0.706867
     19 O4          -0.9320     0.5820    10.4630 oh         1 NGS      -0.715000
     20 H1           0.3650     0.9660     6.4200 h2         1 NGS       0.005700
     21 H2           0.5530    -1.8680     7.5400 h1         1 NGS       0.121700
     22 H3          -1.5470     0.2920     8.0020 h1         1 NGS       0.030700
     23 H4           0.5260    -0.8030     9.9350 h1         1 NGS       0.059700
     24 H5           0.2980     1.9040     8.5390 h1         1 NGS       0.051700
     25 H61          1.2920     1.9820    10.8460 h1         1 NGS       0.039200
     26 H62          2.5090     0.8090    10.3220 h1         1 NGS       0.039200
     27 HO3         -2.2800    -1.8820     8.1600 ho         1 NGS       0.440000
     28 HN2         -1.4880    -0.7350     5.7200 hn         1 NGS       0.299500
     29 H81         -2.0780    -3.7130     4.2710 hc         1 NGS       0.055033
     30 H82         -2.3130    -1.9690     4.1010 hc         1 NGS       0.055033
     31 H83         -0.9420    -2.7650     3.3260 hc         1 NGS       0.055033
     32 HO4         -0.5260     0.5220    11.3320 ho         1 NGS       0.512000
     33 HO1          2.2200     0.3430     5.3810 ho         1 NGS       0.462000
@<TRIPOS>BOND
     1     1     2 1   
     2     1     7 1   
     3     1     9 1   
     4     1    20 1   
     5     2     3 1   
     6     2    11 1   
     7     2    21 1   
     8     3     4 1   
     9     3     8 1   
    10     3    22 1   
    11     4     5 1   
    12     4    19 1   
    13     4    23 1   
    14     5     6 1   
    15     5     9 1   
    16     5    24 1   
    17     6    10 1   
    18     6    25 1   
    19     6    26 1   
    20     7    33 1   
    21     8    27 1   
    22    10    15 1   
    23    11    12 1   
    24    11    28 1   
    25    12    13 2   
    26    12    14 1   
    27    14    29 1   
    28    14    30 1   
    29    14    31 1   
    30    15    16 1   
    31    15    17 1   
    32    15    18 1   
    33    19    32 1   
@<TRIPOS>SUBSTRUCTURE
     1 NGS         1 TEMP              0 ****  ****    0 ROOT
