@<TRIPOS>MOLECULE
NGS
   33    33     1     0     0
SMALL
No Charge or Current Charge


@<TRIPOS>ATOM
      1 C1           0.9090     0.0390     6.6680 c6         1 NGS       0.388300
      2 C2          -0.0740    -1.0610     7.1840 c6         1 NGS       0.030700
      3 C3          -0.8620    -0.4780     8.3900 c6         1 NGS       0.162300
      4 C4           0.1110     0.0630     9.4810 c6         1 NGS       0.143300
      5 C5           1.0900     1.0920     8.8370 c6         1 NGS       0.137300
      6 C6           2.1670     1.5990     9.8460 c3         1 NGS       0.229600
      7 O1           1.7710    -0.4570     5.6640 oh         1 NGS      -0.634000
      8 O3          -1.7350    -1.4700     8.9570 oh         1 NGS      -0.642000
      9 O5           1.7760     0.4630     7.7230 os         1 NGS      -0.441000
     10 O6           2.9190     2.6750     9.2540 os         1 NGS      -0.591700
     11 N2          -1.0000    -1.5450     6.1240 ns         1 NGS      -0.508900
     12 C7          -0.8110    -2.6680     5.3490 c          1 NGS       0.607100
     13 O7           0.1030    -3.4560     5.5400 o          1 NGS      -0.586100
     14 C8          -1.8440    -2.8620     4.2470 c3         1 NGS      -0.182100
     15 S            4.0970     3.3260    10.1920 s6         1 NGS       1.497300
     16 O7A          4.9860     2.1950    10.4930 o          1 NGS      -0.706867
     17 O8           3.3750     3.8510    11.3610 o          1 NGS      -0.706867
     18 O9           4.6960     4.3590     9.3350 o          1 NGS      -0.706867
     19 O4          -0.6430     0.6370    10.5650 oh         1 NGS      -0.715000
     20 H1           0.3480     0.9030     6.2830 h2         1 NGS       0.005700
     21 H2           0.5320    -1.9060     7.5430 h1         1 NGS       0.121700
     22 H3          -1.4650     0.3660     8.0210 h1         1 NGS       0.030700
     23 H4           0.7090    -0.7830     9.8540 h1         1 NGS       0.059700
     24 H5           0.5230     1.9580     8.4670 h1         1 NGS       0.051700
     25 H61          1.6570     1.9420    10.7560 h1         1 NGS       0.039200
     26 H62          2.8170     0.7560    10.1160 h1         1 NGS       0.039200
     27 HO3         -2.1350    -1.9510     8.1990 ho         1 NGS       0.440000
     28 HN2         -1.7800    -0.9530     5.8600 hn         1 NGS       0.299500
     29 H81         -1.6710    -3.7720     3.6600 hc         1 NGS       0.055033
     30 H82         -2.8460    -2.8510     4.6900 hc         1 NGS       0.055033
     31 H83         -1.8610    -1.9690     3.6120 hc         1 NGS       0.055033
     32 HO4         -1.4140     0.0300    10.6850 ho         1 NGS       0.512000
     33 HO1          2.6250    -0.0200     5.8640 ho         1 NGS       0.462000
@<TRIPOS>BOND
     1     1     2 1   
     2     1     7 1   
     3     1     9 1   
     4     1    20 1   
     5     2     3 1   
     6     2    11 1   
     7     2    21 1   
     8     3     4 1   
     9     3     8 1   
    10     3    22 1   
    11     4     5 1   
    12     4    19 1   
    13     4    23 1   
    14     5     6 1   
    15     5     9 1   
    16     5    24 1   
    17     6    10 1   
    18     6    25 1   
    19     6    26 1   
    20     7    33 1   
    21     8    27 1   
    22    10    15 1   
    23    11    12 1   
    24    11    28 1   
    25    12    13 2   
    26    12    14 1   
    27    14    29 1   
    28    14    30 1   
    29    14    31 1   
    30    15    16 1   
    31    15    17 1   
    32    15    18 1   
    33    19    32 1   
@<TRIPOS>SUBSTRUCTURE
     1 NGS         1 TEMP              0 ****  ****    0 ROOT
