@<TRIPOS>MOLECULE
NGT
   27    28     1     0     0
SMALL
bcc


@<TRIPOS>ATOM
      1 C1           0.6850     0.9620     0.4730 c5         1 NGT       0.245200
      2 C2          -0.8000     0.8020     0.8400 c5         1 NGT       0.072500
      3 C3          -1.5000    -0.2380    -0.0370 c6         1 NGT       0.153100
      4 C4          -1.1030    -0.0790    -1.4990 c6         1 NGT       0.078100
      5 C5           0.4210    -0.1530    -1.6080 c6         1 NGT       0.107100
      6 C6           0.9140    -0.0150    -3.0310 c3         1 NGT       0.148400
      7 C7           0.1360    -0.2180     2.6250 c2         1 NGT       0.483200
      8 C8           0.2750    -0.8370     3.9700 c3         1 NGT      -0.128400
      9 N2          -0.8960     0.3970     2.2260 n2         1 NGT      -0.553900
     10 S1           1.5070    -0.3450     1.5080 ss         1 NGT      -0.403300
     11 O3          -2.8820    -0.0940     0.1560 oh         1 NGT      -0.576800
     12 O4          -1.7280    -1.1240    -2.2100 oh         1 NGT      -0.596800
     13 O5           0.9900     0.9140    -0.8650 os         1 NGT      -0.348600
     14 O6           2.3130    -0.1570    -3.0440 oh         1 NGT      -0.577800
     15 HC1          1.0590     1.9200     0.8390 h2         1 NGT       0.111700
     16 HC2         -1.2980     1.7660     0.6950 h1         1 NGT       0.108700
     17 HC3         -1.1620    -1.2380     0.2810 h1         1 NGT       0.057700
     18 HC4         -1.4380     0.9040    -1.8620 h1         1 NGT       0.055700
     19 HC5          0.7610    -1.1180    -1.2010 h1         1 NGT       0.083700
     20 HC61         0.4270    -0.7850    -3.6390 h1         1 NGT       0.026200
     21 HC62         0.5980     0.9600    -3.4290 h1         1 NGT       0.026200
     22 HC81         0.5110    -1.8980     3.8780 hc         1 NGT       0.064033
     23 HC82         1.0910    -0.3710     4.5240 hc         1 NGT       0.064033
     24 HC83        -0.6480    -0.7280     4.5350 hc         1 NGT       0.064033
     25 HO3         -3.3240    -0.7780    -0.3590 ho         1 NGT       0.419000
     26 HO4         -1.9500    -0.8180    -3.0940 ho         1 NGT       0.413000
     27 HO6          2.6030    -0.1480    -3.9600 ho         1 NGT       0.406000
@<TRIPOS>BOND
     1     1     2 1   
     2     1    10 1   
     3     1    13 1   
     4     1    15 1   
     5     2     3 1   
     6     2     9 1   
     7     2    16 1   
     8     3     4 1   
     9     3    11 1   
    10     3    17 1   
    11     4     5 1   
    12     4    12 1   
    13     4    18 1   
    14     5     6 1   
    15     5    13 1   
    16     5    19 1   
    17     6    14 1   
    18     6    20 1   
    19     6    21 1   
    20     7     8 1   
    21     7     9 2   
    22     7    10 1   
    23     8    22 1   
    24     8    23 1   
    25     8    24 1   
    26    11    25 1   
    27    12    26 1   
    28    14    27 1   
@<TRIPOS>SUBSTRUCTURE
     1 NGT         1 TEMP              0 ****  ****    0 ROOT
