@<TRIPOS>MOLECULE
NGT
   27    28     1     0     0
SMALL
No Charge or Current Charge


@<TRIPOS>ATOM
      1 C1           0.7500     0.9180     0.5930 c5         1 NGT       0.316300
      2 C2          -0.7850     0.8230     0.8680 c5         1 NGT       0.072500
      3 C3          -1.5130    -0.2580     0.0090 c6         1 NGT       0.176300
      4 C4          -1.1320    -0.1190    -1.4850 c6         1 NGT       0.101300
      5 C5           0.4180    -0.2070    -1.6270 c6         1 NGT       0.130300
      6 C6           0.9100    -0.0400    -3.1030 c3         1 NGT       0.171600
      7 C7           0.1120    -0.2150     2.6840 c2         1 NGT       0.483200
      8 C8           0.2730    -0.7840     4.0680 c3         1 NGT      -0.128400
      9 N2          -0.9150     0.4840     2.3330 n2         1 NGT      -0.553900
     10 S1           1.4270    -0.5060     1.5230 ss         1 NGT      -0.451200
     11 O3          -2.9410    -0.1710     0.1410 oh         1 NGT      -0.639000
     12 O4          -1.8090    -1.1400    -2.2540 oh         1 NGT      -0.719000
     13 O5           1.0660     0.8150    -0.8230 os         1 NGT      -0.395000
     14 O6           2.3450    -0.0660    -3.2310 oh         1 NGT      -0.700000
     15 HC1          1.1600     1.8480     1.0110 h2         1 NGT       0.111700
     16 HC2         -1.2460     1.7980     0.6600 h1         1 NGT       0.108700
     17 HC3         -1.1760    -1.2520     0.3410 h1         1 NGT       0.057700
     18 HC4         -1.4490     0.8790    -1.8280 h1         1 NGT       0.055700
     19 HC5          0.7520    -1.1920    -1.2720 h1         1 NGT       0.083700
     20 HC61         0.4720    -0.8450    -3.7080 h1         1 NGT       0.026200
     21 HC62         0.5170     0.9110    -3.4900 h1         1 NGT       0.026200
     22 HC81         0.5210    -1.8510     4.0230 hc         1 NGT       0.064033
     23 HC82         1.0780    -0.2710     4.6060 hc         1 NGT       0.064033
     24 HC83        -0.6470    -0.6780     4.6540 hc         1 NGT       0.064033
     25 HO3         -3.2870    -0.6920    -0.6200 ho         1 NGT       0.458000
     26 HO4         -1.8920    -0.8160    -3.1820 ho         1 NGT       0.512000
     27 HO6          2.5530     0.1100    -4.1780 ho         1 NGT       0.505000
@<TRIPOS>BOND
     1     1     2 1   
     2     1    10 1   
     3     1    13 1   
     4     1    15 1   
     5     2     3 1   
     6     2     9 1   
     7     2    16 1   
     8     3     4 1   
     9     3    11 1   
    10     3    17 1   
    11     4     5 1   
    12     4    12 1   
    13     4    18 1   
    14     5     6 1   
    15     5    13 1   
    16     5    19 1   
    17     6    14 1   
    18     6    20 1   
    19     6    21 1   
    20     7     8 1   
    21     7     9 2   
    22     7    10 1   
    23     8    22 1   
    24     8    23 1   
    25     8    24 1   
    26    11    25 1   
    27    12    26 1   
    28    14    27 1   
@<TRIPOS>SUBSTRUCTURE
     1 NGT         1 TEMP              0 ****  ****    0 ROOT
