@<TRIPOS>MOLECULE
NGU
  106   112     1     0     0
SMALL
No Charge or Current Charge


@<TRIPOS>ATOM
      1 C1           0.0480    -0.8320    -4.7140 ca         1 NGU       0.161100
      2 C2           1.2680    -0.8200    -5.4280 ca         1 NGU      -0.144300
      3 C3           2.4620    -1.1300    -4.7520 ca         1 NGU      -0.132000
      4 C4           2.4490    -1.4780    -3.3940 ca         1 NGU       0.140100
      5 C5           1.1910    -1.9380    -1.2190 c          1 NGU       0.599300
      6 C6           0.1010    -1.2710     1.0000 ca         1 NGU       0.221100
      7 C7          -0.9370    -0.6640     3.2930 c6         1 NGU       0.234600
      8 C8          -2.0670     0.2370     3.8480 c6         1 NGU      -0.126400
      9 C9          -3.4630    -0.2360     3.4010 c6         1 NGU       0.197000
     10 C10         -3.5410    -0.2200     1.8420 c6         1 NGU      -0.068400
     11 C11         -2.3040    -0.7300    -0.3150 ca         1 NGU      -0.108000
     12 C12         -1.2840    -1.2190    -2.5710 c          1 NGU       0.597300
     13 C13         -4.5520     0.6610     4.0590 c3         1 NGU      -0.123100
     14 C14         -4.7900    -0.9720     1.3270 c          1 NGU       0.607100
     15 C16          1.2290    -1.5300    -2.6780 ca         1 NGU      -0.127600
     16 C17          0.0230    -1.4330    -0.4030 ca         1 NGU      -0.186600
     17 C18         -1.0240    -0.8470     1.7560 ca         1 NGU      -0.161300
     18 C19         -2.2540    -0.6280     1.0880 ca         1 NGU      -0.006300
     19 C20         -1.1820    -1.1220    -1.0670 ca         1 NGU      -0.089600
     20 C21          0.0170    -1.1970    -3.3450 ca         1 NGU      -0.137600
     21 O1          -1.1180    -0.4630    -5.3550 os         1 NGU      -0.323100
     22 O4           3.6450    -1.7270    -2.7830 oh         1 NGU      -0.501100
     23 O5           1.9960    -2.7380    -0.7540 o          1 NGU      -0.467100
     24 O6           1.2830    -1.4810     1.6380 oh         1 NGU      -0.517100
     25 O7           0.3610    -0.1150     3.6310 os         1 NGU      -0.471000
     26 O9          -3.6710    -1.5630     3.8880 oh         1 NGU      -0.657000
     27 O10         -5.9300    -0.2050     1.3270 os         1 NGU      -0.450100
     28 O14         -4.7550    -2.1220     0.9030 o          1 NGU      -0.458000
     29 O12         -2.3790    -1.3430    -3.1100 o          1 NGU      -0.490100
     30 C35          0.7210    -0.1470     5.0310 c6         1 NGU       0.383300
     31 C36          2.2630    -0.3170     5.1790 c6         1 NGU       0.155300
     32 C37          2.6430    -0.3100     6.7090 c6         1 NGU       0.184000
     33 C38          2.0930     1.0260     7.3450 c6         1 NGU       0.113300
     34 C39          0.5670     1.2450     7.0320 c6         1 NGU       0.167300
     35 C25         -0.4270     0.3400     7.8160 c3         1 NGU      -0.121100
     36 C28          4.1890    -0.4110     6.9240 c3         1 NGU      -0.109100
     37 O8           0.3140     1.1090     5.6150 os         1 NGU      -0.483000
     38 O2           2.7020    -1.5220     4.4800 os         1 NGU      -0.438000
     39 O3           2.0590    -1.4940     7.3350 os         1 NGU      -0.447000
     40 O11          2.8930     2.1490     6.8800 os         1 NGU      -0.447000
     41 C30         -1.0780     0.0570    -6.7000 c6         1 NGU       0.358300
     42 C31         -0.8700     1.6240    -6.7470 c6         1 NGU       0.108300
     43 C32          0.5980     1.9950    -6.3210 c6         1 NGU       0.165500
     44 C33          1.6000     1.1130    -7.1200 c6         1 NGU       0.154300
     45 C34          1.2750    -0.4060    -6.9160 c6         1 NGU       0.231300
     46 C22          2.1980    -1.3110    -7.7790 c3         1 NGU      -0.073100
     47 N1           1.0250     3.4460    -6.4360 n3         1 NGU      -0.820600
     48 O13         -0.0490    -0.6370    -7.4310 os         1 NGU      -0.447000
     49 O15         -1.8540     2.3170    -5.9380 oh         1 NGU      -0.688000
     50 O16          2.9220     1.5100    -6.7230 oh         1 NGU      -0.713000
     51 O23         -0.6830     4.6490    -5.4280 oh         1 NGU      -0.668000
     52 H3           3.4110    -1.0780    -5.2790 ha         1 NGU       0.125000
     53 H7          -1.0190    -1.6640     3.7470 h1         1 NGU       0.072700
     54 H81         -2.0280     0.2500     4.9440 hc         1 NGU       0.068200
     55 H82         -1.9000     1.2710     3.5170 hc         1 NGU       0.068200
     56 H10         -3.7390     0.8340     1.6070 hc         1 NGU       0.089700
     57 H11         -3.2330    -0.5020    -0.8340 ha         1 NGU       0.136000
     58 H131        -4.4400     0.6950     5.1500 hc         1 NGU       0.049033
     59 H132        -4.4930     1.6950     3.6980 hc         1 NGU       0.049033
     60 H133        -5.5650     0.2960     3.8540 hc         1 NGU       0.049033
     61 H151        -7.9760    -0.0790     0.9120 h1         1 NGU       0.047367
     62 H152        -7.0520    -1.1160    -0.1950 h1         1 NGU       0.047367
     63 H153        -7.4210    -1.6760     1.4570 h1         1 NGU       0.047367
     64 HO4          4.3640    -1.6380    -3.4430 ho         1 NGU       0.463000
     65 HO6          1.1860    -1.0560     2.5260 ho         1 NGU       0.502000
     66 HO9         -3.8680    -1.4880     4.8470 ho         1 NGU       0.446000
     67 H1           0.2180    -0.9910     5.5230 h2         1 NGU       0.058700
     68 H2           2.7280     0.5550     4.6970 h1         1 NGU       0.080700
     69 H4           2.2200     0.9790     8.4350 h1         1 NGU       0.046700
     70 H5           0.3000     2.2730     7.3110 h1         1 NGU       0.069700
     71 H251        -0.2860     0.4570     8.8970 hc         1 NGU       0.048700
     72 H252        -1.4620     0.6250     7.5930 hc         1 NGU       0.048700
     73 H253        -0.3280    -0.7250     7.5860 hc         1 NGU       0.048700
     74 H261         3.4750     4.1330     7.1770 h1         1 NGU       0.030700
     75 H262         1.7350     3.8460     7.3400 h1         1 NGU       0.030700
     76 H263         2.8510     3.3140     8.6250 h1         1 NGU       0.030700
     77 H271         1.7330    -2.6610     9.0380 h1         1 NGU       0.030033
     78 H272         3.3230    -1.8890     8.9780 h1         1 NGU       0.030033
     79 H273         1.8720    -0.9270     9.3600 h1         1 NGU       0.030033
     80 H281         4.5560    -1.4260     6.7370 hc         1 NGU       0.049700
     81 H282         4.7300     0.2700     6.2560 hc         1 NGU       0.049700
     82 H283         4.4720    -0.1400     7.9480 hc         1 NGU       0.049700
     83 H291         4.1470    -2.4310     3.2760 h1         1 NGU       0.036033
     84 H292         3.9870    -0.6780     3.0530 h1         1 NGU       0.036033
     85 H293         4.8030    -1.3250     4.4940 h1         1 NGU       0.036033
     86 H30         -2.0470    -0.1610    -7.1740 h2         1 NGU       0.107700
     87 H31         -0.9970     1.9250    -7.7970 h1         1 NGU       0.040700
     88 H32          0.6950     1.7030    -5.2650 h1         1 NGU       0.097700
     89 H33          1.4710     1.3290    -8.1900 h1         1 NGU       0.042700
     90 H221         1.9830    -2.3720    -7.6050 hc         1 NGU       0.054367
     91 H222         2.0550    -1.1130    -8.8480 hc         1 NGU       0.054367
     92 H223         3.2580    -1.1440    -7.5600 hc         1 NGU       0.054367
     93 H231         0.8580     3.8130    -4.3500 h2         1 NGU       0.052700
     94 H232         1.2770     5.2450    -5.3380 h2         1 NGU       0.052700
     95 H241         1.3040     5.0790    -7.7870 h1         1 NGU       0.032033
     96 H242         1.3490     3.4870    -8.5580 h1         1 NGU       0.032033
     97 H243        -0.2050     4.1730    -8.0370 h1         1 NGU       0.032033
     98 H15         -2.7440     1.9630    -6.1740 ho         1 NGU       0.508000
     99 H16          2.7720     2.4680    -6.5080 ho         1 NGU       0.528000
    100 H23         -1.0940     3.7780    -5.6630 ho         1 NGU       0.446000
    101 C26          2.7250     3.4180     7.5390 c3         1 NGU       0.145900
    102 C15         -7.1520    -0.8000     0.8520 c3         1 NGU       0.153900
    103 C27          2.2610    -1.7460     8.7440 c3         1 NGU       0.147900
    104 C29          3.9710    -1.4830     3.7990 c3         1 NGU       0.143900
    105 C23          0.6800     4.3240    -5.3060 c3         1 NGU       0.420800
    106 C24          0.8570     4.0760    -7.7740 c3         1 NGU       0.175100
@<TRIPOS>BOND
     1     1     2 ar  
     2     1    20 ar  
     3     1    21 1   
     4     2     3 ar  
     5     2    45 1   
     6     3     4 ar  
     7     3    52 1   
     8     4    15 ar  
     9     4    22 1   
    10     5    15 1   
    11     5    16 1   
    12     5    23 2   
    13     6    16 ar  
    14     6    17 ar  
    15     6    24 1   
    16     7     8 1   
    17     7    17 1   
    18     7    25 1   
    19     7    53 1   
    20     8     9 1   
    21     8    54 1   
    22     8    55 1   
    23     9    10 1   
    24     9    13 1   
    25     9    26 1   
    26    10    14 1   
    27    10    18 1   
    28    10    56 1   
    29    11    18 ar  
    30    11    19 ar  
    31    11    57 1   
    32    12    19 1   
    33    12    20 1   
    34    12    29 2   
    35    13    58 1   
    36    13    59 1   
    37    13    60 1   
    38    14    27 1   
    39    14    28 2   
    40    15    20 ar  
    41    16    19 ar  
    42    17    18 ar  
    43    21    41 1   
    44    22    64 1   
    45    24    65 1   
    46    25    30 1   
    47    26    66 1   
    48    27   102 1   
    49    30    31 1   
    50    30    37 1   
    51    30    67 1   
    52    31    32 1   
    53    31    38 1   
    54    31    68 1   
    55    32    33 1   
    56    32    36 1   
    57    32    39 1   
    58    33    34 1   
    59    33    40 1   
    60    33    69 1   
    61    34    35 1   
    62    34    37 1   
    63    34    70 1   
    64    35    71 1   
    65    35    72 1   
    66    35    73 1   
    67    36    80 1   
    68    36    81 1   
    69    36    82 1   
    70    38   104 1   
    71    39   103 1   
    72    40   101 1   
    73    41    42 1   
    74    41    48 1   
    75    41    86 1   
    76    42    43 1   
    77    42    49 1   
    78    42    87 1   
    79    43    44 1   
    80    43    47 1   
    81    43    88 1   
    82    44    45 1   
    83    44    50 1   
    84    44    89 1   
    85    45    46 1   
    86    45    48 1   
    87    46    90 1   
    88    46    91 1   
    89    46    92 1   
    90    47   105 1   
    91    47   106 1   
    92    49    98 1   
    93    50    99 1   
    94    51   100 1   
    95    51   105 1   
    96    61   102 1   
    97    62   102 1   
    98    63   102 1   
    99    74   101 1   
   100    75   101 1   
   101    76   101 1   
   102    77   103 1   
   103    78   103 1   
   104    79   103 1   
   105    83   104 1   
   106    84   104 1   
   107    85   104 1   
   108    93   105 1   
   109    94   105 1   
   110    95   106 1   
   111    96   106 1   
   112    97   106 1   
@<TRIPOS>SUBSTRUCTURE
     1 NGU         1 TEMP              0 ****  ****    0 ROOT
