@<TRIPOS>MOLECULE
NGU
  106   112     1     0     0
SMALL
abcg2


@<TRIPOS>ATOM
      1 C1           0.0450    -0.9130    -4.5480 ca         1 NGU       0.161100
      2 C2           1.2700    -1.0100    -5.2220 ca         1 NGU      -0.144300
      3 C3           2.4050    -1.3400    -4.5160 ca         1 NGU      -0.132000
      4 C4           2.3710    -1.6110    -3.1480 ca         1 NGU       0.140100
      5 C5           1.0830    -1.8260    -1.0140 c          1 NGU       0.599300
      6 C6           0.0310    -0.9750     1.1120 ca         1 NGU       0.221100
      7 C7          -1.0380    -0.1080     3.2790 c6         1 NGU       0.234600
      8 C8          -1.9990     1.0290     3.5880 c6         1 NGU      -0.126400
      9 C9          -3.4340     0.6740     3.2270 c6         1 NGU       0.197000
     10 C10         -3.5160     0.3600     1.7150 c6         1 NGU      -0.068400
     11 C11         -2.2920    -0.3820    -0.2900 ca         1 NGU      -0.108000
     12 C12         -1.2890    -1.0620    -2.4360 c          1 NGU       0.597300
     13 C13         -4.3500     1.8330     3.6050 c3         1 NGU      -0.123100
     14 C14         -4.6410    -0.6380     1.4760 c          1 NGU       0.607100
     15 C16          1.1550    -1.5230    -2.4680 ca         1 NGU      -0.127600
     16 C17         -0.0310    -1.2050    -0.2700 ca         1 NGU      -0.186600
     17 C18         -1.0730    -0.4130     1.7930 ca         1 NGU      -0.161300
     18 C19         -2.2450    -0.1640     1.0840 ca         1 NGU      -0.006300
     19 C20         -1.1970    -0.8750    -0.9640 ca         1 NGU      -0.089600
     20 C21         -0.0130    -1.1690    -3.1750 ca         1 NGU      -0.137600
     21 O1          -1.0770    -0.5610    -5.1940 os         1 NGU      -0.323100
     22 O4           3.4970    -1.9250    -2.4910 oh         1 NGU      -0.501100
     23 O5           1.8950    -2.5510    -0.4810 o          1 NGU      -0.467100
     24 O6           1.1570    -1.2950     1.7450 oh         1 NGU      -0.517100
     25 O7           0.2860     0.2640     3.6720 os         1 NGU      -0.471000
     26 O9          -3.8230    -0.5160     3.8930 oh         1 NGU      -0.657000
     27 O10         -5.8260    -0.0510     1.5180 os         1 NGU      -0.450100
     28 O14         -4.4840    -1.8130     1.2710 o          1 NGU      -0.458000
     29 O12         -2.3740    -1.0880    -2.9770 o          1 NGU      -0.490100
     30 C35          0.6950    -0.1680     4.9390 c6         1 NGU       0.383300
     31 C36          2.1770     0.1720     5.0860 c6         1 NGU       0.155300
     32 C37          2.6680    -0.2440     6.4820 c6         1 NGU       0.184000
     33 C38          1.7420     0.4100     7.5370 c6         1 NGU       0.113300
     34 C39          0.2500     0.1890     7.2500 c6         1 NGU       0.167300
     35 C25         -0.3000    -1.1700     7.6600 c3         1 NGU      -0.121100
     36 C28          4.1200     0.1800     6.6920 c3         1 NGU      -0.109100
     37 O8          -0.0430     0.5250     5.9000 os         1 NGU      -0.483000
     38 O2           2.9070    -0.4830     4.0820 os         1 NGU      -0.438000
     39 O3           2.5190    -1.6490     6.5180 os         1 NGU      -0.447000
     40 O11          2.0350     1.7880     7.5430 os         1 NGU      -0.447000
     41 C30         -0.9870    -0.2340    -6.5690 c6         1 NGU       0.358300
     42 C31         -0.7660     1.2720    -6.7840 c6         1 NGU       0.108300
     43 C32          0.6410     1.6740    -6.3460 c6         1 NGU       0.165500
     44 C33          1.6400     0.7200    -7.0120 c6         1 NGU       0.154300
     45 C34          1.2920    -0.7470    -6.7100 c6         1 NGU       0.231300
     46 C22          2.2040    -1.7000    -7.4630 c3         1 NGU      -0.073100
     47 N1           1.0420     3.0420    -6.6350 n3         1 NGU      -0.820600
     48 O13         -0.0220    -0.9930    -7.2060 os         1 NGU      -0.447000
     49 O15         -1.7230     2.0290    -6.1020 oh         1 NGU      -0.688000
     50 O16          2.9410     0.9860    -6.5790 oh         1 NGU      -0.713000
     51 O23         -0.1190     4.2370    -4.8760 oh         1 NGU      -0.668000
     52 H3           3.3540    -1.4060    -5.0340 ha         1 NGU       0.125000
     53 H7          -1.3330    -1.0090     3.8330 h1         1 NGU       0.072700
     54 H81         -1.9510     1.2740     4.6490 hc         1 NGU       0.068200
     55 H82         -1.6870     1.9210     3.0370 hc         1 NGU       0.068200
     56 H10         -3.7700     1.2920     1.1990 hc         1 NGU       0.089700
     57 H11         -3.1950    -0.1480    -0.8400 ha         1 NGU       0.136000
     58 H131        -4.2950     2.0170     4.6800 hc         1 NGU       0.049033
     59 H132        -4.0410     2.7500     3.1010 hc         1 NGU       0.049033
     60 H133        -5.3890     1.6370     3.3470 hc         1 NGU       0.049033
     61 H151        -7.8350    -0.2180     1.4340 h1         1 NGU       0.047367
     62 H152        -6.9810    -1.4040     0.4250 h1         1 NGU       0.047367
     63 H153        -7.0370    -1.6140     2.1890 h1         1 NGU       0.047367
     64 HO4          4.2520    -1.8680    -3.0890 ho         1 NGU       0.463000
     65 HO6          1.1870    -0.8290     2.5970 ho         1 NGU       0.502000
     66 HO9         -3.8710    -0.3370     4.8390 ho         1 NGU       0.446000
     67 H1           0.5310    -1.2530     5.0230 h2         1 NGU       0.058700
     68 H2           2.2740     1.2630     5.0000 h1         1 NGU       0.080700
     69 H4           1.9750    -0.0230     8.5230 h1         1 NGU       0.046700
     70 H5          -0.3010     0.9340     7.8320 h1         1 NGU       0.069700
     71 H251        -0.1340    -1.3230     8.7270 hc         1 NGU       0.048700
     72 H252        -1.3770    -1.2010     7.4900 hc         1 NGU       0.048700
     73 H253         0.1520    -2.0060     7.1330 hc         1 NGU       0.048700
     74 H261         2.0880     3.4710     8.6650 h1         1 NGU       0.030700
     75 H262         0.7220     2.4140     9.0450 h1         1 NGU       0.030700
     76 H263         2.3520     1.9790     9.5880 h1         1 NGU       0.030700
     77 H271         2.7860    -3.3820     7.5090 h1         1 NGU       0.030033
     78 H272         4.1970    -2.3210     7.5640 h1         1 NGU       0.030033
     79 H273         2.7840    -1.9760     8.5740 h1         1 NGU       0.030033
     80 H281         4.7870    -0.4170     6.0700 hc         1 NGU       0.049700
     81 H282         4.2690     1.2260     6.4340 hc         1 NGU       0.049700
     82 H283         4.4310     0.0530     7.7300 hc         1 NGU       0.049700
     83 H291         4.2020    -0.2670     2.5400 h1         1 NGU       0.036033
     84 H292         3.0380     1.0600     2.6810 h1         1 NGU       0.036033
     85 H293         4.4000     0.9490     3.8110 h1         1 NGU       0.036033
     86 H30         -1.9510    -0.5230    -6.9940 h2         1 NGU       0.107700
     87 H31         -0.8470     1.4160    -7.8710 h1         1 NGU       0.040700
     88 H32          0.7220     1.5520    -5.2600 h1         1 NGU       0.097700
     89 H33          1.5590     0.8340    -8.1070 h1         1 NGU       0.042700
     90 H221         1.9570    -2.7370    -7.2370 hc         1 NGU       0.054367
     91 H222         2.0940    -1.5410    -8.5370 hc         1 NGU       0.054367
     92 H223         3.2500    -1.5380    -7.2150 hc         1 NGU       0.054367
     93 H231         1.7450     3.5320    -4.7570 h2         1 NGU       0.052700
     94 H232         1.5710     4.8670    -5.8980 h2         1 NGU       0.052700
     95 H241         1.1170     4.5370    -8.0820 h1         1 NGU       0.032033
     96 H242         0.8310     2.9330    -8.7200 h1         1 NGU       0.032033
     97 H243        -0.4860     3.8080    -7.9390 h1         1 NGU       0.032033
     98 H15         -2.5560     1.9770    -6.5830 ho         1 NGU       0.508000
     99 H16          3.0270     1.9490    -6.5800 ho         1 NGU       0.528000
    100 H23         -0.7830     4.4600    -5.5350 ho         1 NGU       0.446000
    101 C26          1.7820     2.4310     8.7680 c3         1 NGU       0.145900
    102 C15         -6.9780    -0.8840     1.3820 c3         1 NGU       0.153900
    103 C27          3.1040    -2.3450     7.5950 c3         1 NGU       0.147900
    104 C29          3.6670     0.3650     3.2460 c3         1 NGU       0.143900
    105 C23          1.0960     3.9510    -5.5290 c3         1 NGU       0.420800
    106 C24          0.5900     3.6020    -7.8920 c3         1 NGU       0.175100
@<TRIPOS>BOND
     1     1     2 ar  
     2     1    20 ar  
     3     1    21 1   
     4     2     3 ar  
     5     2    45 1   
     6     3     4 ar  
     7     3    52 1   
     8     4    15 ar  
     9     4    22 1   
    10     5    15 1   
    11     5    16 1   
    12     5    23 2   
    13     6    16 ar  
    14     6    17 ar  
    15     6    24 1   
    16     7     8 1   
    17     7    17 1   
    18     7    25 1   
    19     7    53 1   
    20     8     9 1   
    21     8    54 1   
    22     8    55 1   
    23     9    10 1   
    24     9    13 1   
    25     9    26 1   
    26    10    14 1   
    27    10    18 1   
    28    10    56 1   
    29    11    18 ar  
    30    11    19 ar  
    31    11    57 1   
    32    12    19 1   
    33    12    20 1   
    34    12    29 2   
    35    13    58 1   
    36    13    59 1   
    37    13    60 1   
    38    14    27 1   
    39    14    28 2   
    40    15    20 ar  
    41    16    19 ar  
    42    17    18 ar  
    43    21    41 1   
    44    22    64 1   
    45    24    65 1   
    46    25    30 1   
    47    26    66 1   
    48    27   102 1   
    49    30    31 1   
    50    30    37 1   
    51    30    67 1   
    52    31    32 1   
    53    31    38 1   
    54    31    68 1   
    55    32    33 1   
    56    32    36 1   
    57    32    39 1   
    58    33    34 1   
    59    33    40 1   
    60    33    69 1   
    61    34    35 1   
    62    34    37 1   
    63    34    70 1   
    64    35    71 1   
    65    35    72 1   
    66    35    73 1   
    67    36    80 1   
    68    36    81 1   
    69    36    82 1   
    70    38   104 1   
    71    39   103 1   
    72    40   101 1   
    73    41    42 1   
    74    41    48 1   
    75    41    86 1   
    76    42    43 1   
    77    42    49 1   
    78    42    87 1   
    79    43    44 1   
    80    43    47 1   
    81    43    88 1   
    82    44    45 1   
    83    44    50 1   
    84    44    89 1   
    85    45    46 1   
    86    45    48 1   
    87    46    90 1   
    88    46    91 1   
    89    46    92 1   
    90    47   105 1   
    91    47   106 1   
    92    49    98 1   
    93    50    99 1   
    94    51   100 1   
    95    51   105 1   
    96    61   102 1   
    97    62   102 1   
    98    63   102 1   
    99    74   101 1   
   100    75   101 1   
   101    76   101 1   
   102    77   103 1   
   103    78   103 1   
   104    79   103 1   
   105    83   104 1   
   106    84   104 1   
   107    85   104 1   
   108    93   105 1   
   109    94   105 1   
   110    95   106 1   
   111    96   106 1   
   112    97   106 1   
@<TRIPOS>SUBSTRUCTURE
     1 NGU         1 TEMP              0 ****  ****    0 ROOT
