@<TRIPOS>MOLECULE
NGV
   42    45     1     0     0
SMALL
bcc


@<TRIPOS>ATOM
      1 O17          8.6510     2.7180    12.7320 o          1 NGV      -0.515000
      2 C14          9.3610     2.3250    13.6220 c          1 NGV       0.651300
      3 O16         10.6800     2.3150    13.5740 os         1 NGV      -0.410900
      4 C15         11.3020     2.8500    12.4010 c3         1 NGV       0.124700
      5 C10          8.8360     1.7720    14.9080 ce         1 NGV      -0.138400
      6 C9           9.0020     2.4340    16.0640 c2         1 NGV      -0.000400
      7 C13          9.7510     3.7120    16.2330 c3         1 NGV      -0.068900
      8 C8           8.4150     1.8840    17.3200 c6         1 NGV      -0.171200
      9 C19          8.0970     0.5110    14.8420 ca         1 NGV       0.086200
     10 C20          7.3550     0.0570    15.9430 ca         1 NGV      -0.228600
     11 C7           7.2840     0.9090    17.1490 c          1 NGV       0.597700
     12 O22          6.4040     0.8300    17.9760 o          1 NGV      -0.488100
     13 C11          8.1440    -0.2650    13.6790 ca         1 NGV      -0.142000
     14 C18          7.4970    -1.4780    13.6170 ca         1 NGV      -0.048600
     15 C17          6.7620    -1.9620    14.7060 ca         1 NGV      -0.286600
     16 C5           6.1030    -3.2570    14.6410 c          1 NGV       0.636300
     17 O20          5.4610    -3.6820    15.6190 o          1 NGV      -0.625100
     18 C6           6.6770    -1.1770    15.8780 ca         1 NGV       0.280100
     19 O21          6.0000    -1.5890    16.9280 oh         1 NGV      -0.471100
     20 C12          7.6010    -2.2720    12.3610 c          1 NGV       0.582300
     21 O18          8.2230    -1.8470    11.4130 o          1 NGV      -0.494100
     22 C21          6.9250    -3.5880    12.3140 ca         1 NGV      -0.081600
     23 C1           7.0180    -4.3450    11.1650 ca         1 NGV      -0.128000
     24 C2           6.3840    -5.5860    11.1080 ca         1 NGV      -0.064000
     25 C3           5.6700    -6.0660    12.1820 ca         1 NGV      -0.170000
     26 C16          6.2000    -4.0560    13.4280 ca         1 NGV      -0.259600
     27 C4           5.5660    -5.3120    13.3580 ca         1 NGV       0.225100
     28 O19          4.8660    -5.8310    14.3570 oh         1 NGV      -0.494100
     29 H151        11.0530     3.9010    12.2660 h1         1 NGV       0.052033
     30 H152        12.3710     2.7470    12.5600 h1         1 NGV       0.052033
     31 H153        11.0110     2.2910    11.5120 h1         1 NGV       0.052033
     32 H131        10.1590     4.1230    15.3140 hc         1 NGV       0.057700
     33 H132         9.0940     4.4630    16.6760 hc         1 NGV       0.057700
     34 H133        10.5740     3.5680    16.9360 hc         1 NGV       0.057700
     35 H81          8.1040     2.6870    17.9900 hc         1 NGV       0.091200
     36 H82          9.2130     1.3440    17.8520 hc         1 NGV       0.091200
     37 H11          8.7030     0.0600    12.8140 ha         1 NGV       0.167000
     38 H21          5.6240    -2.4770    16.7200 ho         1 NGV       0.484000
     39 H1           7.5780    -3.9830    10.3140 ha         1 NGV       0.160000
     40 H2           6.4530    -6.1830    10.2090 ha         1 NGV       0.143000
     41 H3           5.1790    -7.0290    12.1340 ha         1 NGV       0.156000
     42 H19          4.8810    -5.2030    15.1090 ho         1 NGV       0.479000
@<TRIPOS>BOND
     1     1     2 2   
     2     2     3 1   
     3     2     5 1   
     4     3     4 1   
     5     4    29 1   
     6     4    30 1   
     7     4    31 1   
     8     5     6 2   
     9     5     9 1   
    10     6     7 1   
    11     6     8 1   
    12     7    32 1   
    13     7    33 1   
    14     7    34 1   
    15     8    11 1   
    16     8    35 1   
    17     8    36 1   
    18     9    10 ar  
    19     9    13 ar  
    20    10    11 1   
    21    10    18 ar  
    22    11    12 2   
    23    13    14 ar  
    24    13    37 1   
    25    14    15 ar  
    26    14    20 1   
    27    15    16 1   
    28    15    18 ar  
    29    16    17 2   
    30    16    26 1   
    31    18    19 1   
    32    19    38 1   
    33    20    21 2   
    34    20    22 1   
    35    22    23 ar  
    36    22    26 ar  
    37    23    24 ar  
    38    23    39 1   
    39    24    25 ar  
    40    24    40 1   
    41    25    27 ar  
    42    25    41 1   
    43    26    27 ar  
    44    27    28 1   
    45    28    42 1   
@<TRIPOS>SUBSTRUCTURE
     1 NGV         1 TEMP              0 ****  ****    0 ROOT
