@<TRIPOS>MOLECULE
NGV
   42    45     1     0     0
SMALL
No Charge or Current Charge


@<TRIPOS>ATOM
      1 O17          9.0600     2.0310    12.4370 o          1 NGV      -0.466000
      2 C14          9.5230     2.3230    13.5320 c          1 NGV       0.602300
      3 O16         10.5180     3.2540    13.6830 os         1 NGV      -0.434100
      4 C15         11.0270     3.9120    12.5080 c3         1 NGV       0.147900
      5 C10          9.0660     1.6960    14.8410 ce         1 NGV      -0.138400
      6 C9           9.2800     2.2520    16.0790 c2         1 NGV      -0.000400
      7 C13         10.0190     3.5450    16.4130 c3         1 NGV      -0.068900
      8 C8           8.6960     1.5470    17.3000 c6         1 NGV      -0.171200
      9 C19          8.2610     0.4110    14.7500 ca         1 NGV       0.086200
     10 C20          7.3460     0.1050    15.7750 ca         1 NGV      -0.228600
     11 C7           7.3100     1.0360    16.9330 c          1 NGV       0.597700
     12 O22          6.2800     1.5210    17.3840 o          1 NGV      -0.488100
     13 C11          8.4220    -0.5220    13.7070 ca         1 NGV      -0.124000
     14 C18          7.6390    -1.6960    13.6330 ca         1 NGV      -0.048600
     15 C17          6.6830    -1.9610    14.6480 ca         1 NGV      -0.286600
     16 C5           5.8410    -3.2100    14.5840 c          1 NGV       0.636300
     17 O20          5.0170    -3.4480    15.4640 o          1 NGV      -0.625100
     18 C6           6.5580    -1.0540    15.7260 ca         1 NGV       0.280100
     19 O21          5.7010    -1.3180    16.7500 oh         1 NGV      -0.510100
     20 C12          7.8440    -2.6500    12.4730 c          1 NGV       0.582300
     21 O18          8.6800    -2.4240    11.6040 o          1 NGV      -0.494100
     22 C21          6.9810    -3.8920    12.4210 ca         1 NGV      -0.081600
     23 C1           7.1360    -4.8000    11.3480 ca         1 NGV      -0.110000
     24 C2           6.3540    -5.9610    11.2680 ca         1 NGV      -0.046000
     25 C3           5.4060    -6.2280    12.2630 ca         1 NGV      -0.152000
     26 C16          6.0190    -4.1650    13.4310 ca         1 NGV      -0.259600
     27 C4           5.2370    -5.3420    13.3350 ca         1 NGV       0.225100
     28 O19          4.3040    -5.6460    14.2780 oh         1 NGV      -0.533100
     29 H151        10.2310     4.4640    11.9920 h1         1 NGV       0.052033
     30 H152        11.8140     4.6260    12.7810 h1         1 NGV       0.052033
     31 H153        11.4580     3.1850    11.8070 h1         1 NGV       0.052033
     32 H131         9.6430     4.3830    15.8140 hc         1 NGV       0.057700
     33 H132         9.9090     3.8400    17.4630 hc         1 NGV       0.057700
     34 H133        11.0940     3.4420    16.2250 hc         1 NGV       0.057700
     35 H81          8.6250     2.1890    18.1870 hc         1 NGV       0.091200
     36 H82          9.3410     0.6790    17.4890 hc         1 NGV       0.091200
     37 H11          9.1740    -0.3490    12.9430 ha         1 NGV       0.149000
     38 H21          5.2450    -2.1660    16.5070 ho         1 NGV       0.523000
     39 H1           7.8680    -4.6090    10.5650 ha         1 NGV       0.142000
     40 H2           6.4830    -6.6500    10.4360 ha         1 NGV       0.125000
     41 H3           4.7980    -7.1270    12.2050 ha         1 NGV       0.138000
     42 H19          4.3420    -4.9090    14.9420 ho         1 NGV       0.518000
@<TRIPOS>BOND
     1     1     2 2   
     2     2     3 1   
     3     2     5 1   
     4     3     4 1   
     5     4    29 1   
     6     4    30 1   
     7     4    31 1   
     8     5     6 2   
     9     5     9 1   
    10     6     7 1   
    11     6     8 1   
    12     7    32 1   
    13     7    33 1   
    14     7    34 1   
    15     8    11 1   
    16     8    35 1   
    17     8    36 1   
    18     9    10 ar  
    19     9    13 ar  
    20    10    11 1   
    21    10    18 ar  
    22    11    12 2   
    23    13    14 ar  
    24    13    37 1   
    25    14    15 ar  
    26    14    20 1   
    27    15    16 1   
    28    15    18 ar  
    29    16    17 2   
    30    16    26 1   
    31    18    19 1   
    32    19    38 1   
    33    20    21 2   
    34    20    22 1   
    35    22    23 ar  
    36    22    26 ar  
    37    23    24 ar  
    38    23    39 1   
    39    24    25 ar  
    40    24    40 1   
    41    25    27 ar  
    42    25    41 1   
    43    26    27 ar  
    44    27    28 1   
    45    28    42 1   
@<TRIPOS>SUBSTRUCTURE
     1 NGV         1 TEMP              0 ****  ****    0 ROOT
