@<TRIPOS>MOLECULE
NGW
   29    30     1     0     0
SMALL
No Charge or Current Charge


@<TRIPOS>ATOM
      1 O4           2.0370     2.0630    -1.0190 oh         1 NGW      -0.720000
      2 C4           1.3710     1.2650    -0.0120 c6         1 NGW       0.098300
      3 C3          -0.1580     1.4890    -0.1030 c6         1 NGW       0.181300
      4 C5           1.6700    -0.2580    -0.1740 c6         1 NGW       0.132300
      5 O3          -0.4380     2.8930     0.0420 oh         1 NGW      -0.643000
      6 C2          -0.8960     0.6260     0.9780 c5         1 NGW       0.131500
      7 N2          -2.3800     0.5550     0.7360 n7         1 NGW      -0.824400
      8 C1          -0.4660    -0.8710     0.9980 c5         1 NGW       0.312300
      9 C7          -2.6010    -0.2440    -0.4910 c5         1 NGW       0.344500
     10 C8          -4.0310    -0.8030    -0.5460 c3         1 NGW      -0.091100
     11 S1          -1.3700    -1.6390    -0.4220 ss         1 NGW      -0.577000
     12 O5           0.9710    -1.0320     0.8390 os         1 NGW      -0.403000
     13 C6           3.1950    -0.5960    -0.0710 c3         1 NGW       0.172600
     14 O6           3.4740    -2.0060    -0.1680 oh         1 NGW      -0.698000
     15 H4           2.9630     2.2230    -0.7140 ho         1 NGW       0.511000
     16 HA           1.7040     1.5730     0.9910 h1         1 NGW       0.053700
     17 H3          -0.4640     1.1600    -1.1060 h1         1 NGW       0.056700
     18 H5           1.3200    -0.5860    -1.1630 h1         1 NGW       0.086700
     19 HB           0.2760     3.3340    -0.4730 ho         1 NGW       0.457000
     20 H2          -0.6840     1.0780     1.9580 h1         1 NGW       0.092700
     21 HC          -2.8250     0.0600     1.5170 hn         1 NGW       0.430000
     22 H1          -0.7970    -1.3500     1.9290 h2         1 NGW       0.100700
     23 H6           4.4430    -2.1180    -0.0270 ho         1 NGW       0.503000
     24 H7          -2.4080     0.3540    -1.3930 h2         1 NGW       0.089700
     25 H81C        -4.7670     0.0100    -0.5710 hc         1 NGW       0.051700
     26 H82C        -4.1760    -1.4100    -1.4470 hc         1 NGW       0.051700
     27 H83C        -4.2500    -1.4340     0.3230 hc         1 NGW       0.051700
     28 H61C         3.7230    -0.0620    -0.8710 h1         1 NGW       0.024200
     29 H62C         3.5690    -0.2060     0.8850 h1         1 NGW       0.024200
@<TRIPOS>BOND
     1     1     2 1   
     2     1    15 1   
     3     2     3 1   
     4     2     4 1   
     5     2    16 1   
     6     3     5 1   
     7     3     6 1   
     8     3    17 1   
     9     4    12 1   
    10     4    13 1   
    11     4    18 1   
    12     5    19 1   
    13     6     7 1   
    14     6     8 1   
    15     6    20 1   
    16     7     9 1   
    17     7    21 1   
    18     8    11 1   
    19     8    12 1   
    20     8    22 1   
    21     9    10 1   
    22     9    11 1   
    23     9    24 1   
    24    10    25 1   
    25    10    26 1   
    26    10    27 1   
    27    13    14 1   
    28    13    28 1   
    29    13    29 1   
    30    14    23 1   
@<TRIPOS>SUBSTRUCTURE
     1 NGW         1 TEMP              0 ****  ****    0 ROOT
