@<TRIPOS>MOLECULE
NGW
   29    30     1     0     0
SMALL
abcg2


@<TRIPOS>ATOM
      1 O4           1.9980     1.9920    -0.9720 oh         1 NGW      -0.720000
      2 C4           1.3820     1.2280     0.0420 c6         1 NGW       0.098300
      3 C3          -0.1170     1.4740    -0.0700 c6         1 NGW       0.181300
      4 C5           1.6500    -0.2700    -0.1260 c6         1 NGW       0.132300
      5 O3          -0.4460     2.8200     0.1570 oh         1 NGW      -0.643000
      6 C2          -0.8920     0.6340     0.9390 c5         1 NGW       0.131500
      7 N2          -2.2980     0.5930     0.6090 n7         1 NGW      -0.824400
      8 C1          -0.3730    -0.8220     1.0000 c5         1 NGW       0.312300
      9 C7          -2.5200    -0.2960    -0.5000 c5         1 NGW       0.344500
     10 C8          -3.9410    -0.8060    -0.5570 c3         1 NGW      -0.091100
     11 S1          -1.3020    -1.7020    -0.3280 ss         1 NGW      -0.577000
     12 O5           1.0030    -0.9670     0.9220 os         1 NGW      -0.403000
     13 C6           3.1240    -0.6030    -0.0510 c3         1 NGW       0.172600
     14 O6           3.2960    -1.9780    -0.2910 oh         1 NGW      -0.698000
     15 H4           2.8710     2.2620    -0.6770 ho         1 NGW       0.511000
     16 HA           1.7290     1.5410     1.0380 h1         1 NGW       0.053700
     17 H3          -0.4060     1.1680    -1.0880 h1         1 NGW       0.056700
     18 H5           1.2560    -0.5960    -1.1000 h1         1 NGW       0.086700
     19 HB           0.0340     3.3500    -0.4880 ho         1 NGW       0.457000
     20 H2          -0.7690     1.0860     1.9270 h1         1 NGW       0.092700
     21 HC          -2.8250     0.2760     1.4150 hn         1 NGW       0.430000
     22 H1          -0.6560    -1.2670     1.9540 h2         1 NGW       0.100700
     23 H6           4.2390    -2.1610    -0.3010 ho         1 NGW       0.503000
     24 H7          -2.2790     0.2100    -1.4360 h2         1 NGW       0.089700
     25 H81C        -4.6310     0.0310    -0.6730 hc         1 NGW       0.051700
     26 H82C        -4.0810    -1.4740    -1.4060 hc         1 NGW       0.051700
     27 H83C        -4.2010    -1.3510     0.3510 hc         1 NGW       0.051700
     28 H61C         3.6480     0.0030    -0.8000 h1         1 NGW       0.024200
     29 H62C         3.5120    -0.3070     0.9340 h1         1 NGW       0.024200
@<TRIPOS>BOND
     1     1     2 1   
     2     1    15 1   
     3     2     3 1   
     4     2     4 1   
     5     2    16 1   
     6     3     5 1   
     7     3     6 1   
     8     3    17 1   
     9     4    12 1   
    10     4    13 1   
    11     4    18 1   
    12     5    19 1   
    13     6     7 1   
    14     6     8 1   
    15     6    20 1   
    16     7     9 1   
    17     7    21 1   
    18     8    11 1   
    19     8    12 1   
    20     8    22 1   
    21     9    10 1   
    22     9    11 1   
    23     9    24 1   
    24    10    25 1   
    25    10    26 1   
    26    10    27 1   
    27    13    14 1   
    28    13    28 1   
    29    13    29 1   
    30    14    23 1   
@<TRIPOS>SUBSTRUCTURE
     1 NGW         1 TEMP              0 ****  ****    0 ROOT
