@<TRIPOS>MOLECULE
NGX
   28    29     1     0     0
SMALL
No Charge or Current Charge


@<TRIPOS>ATOM
      1 N1           7.0430     0.6090    17.1420 nc         1 NGX      -0.701000
      2 C4          13.2980     0.4890    23.2780 ca         1 NGX      -0.099000
      3 C5          14.1390    -0.3740    22.5540 ca         1 NGX      -0.098000
      4 C6          13.5810    -1.3330    21.6940 ca         1 NGX       0.126000
      5 C7          12.1870    -1.4310    21.5530 ca         1 NGX      -0.103000
      6 C8           7.7870    -0.3350    20.5830 c3         1 NGX       0.091600
      7 C10          5.8560     0.2670    17.7210 cc         1 NGX       0.515900
      8 Cl          14.6310    -2.4160    20.7880 cl         1 NGX      -0.209000
      9 C3          11.9020     0.3920    23.1390 ca         1 NGX      -0.104000
     10 C2          11.3380    -0.5670    22.2740 ca         1 NGX      -0.085300
     11 C1           9.8240    -0.6730    22.1180 c3         1 NGX      -0.066100
     12 C            9.3230    -0.1760    20.7410 c3         1 NGX       0.154300
     13 O            9.6970     1.2010    20.5830 oh         1 NGX      -0.646000
     14 N            7.2380    -0.0010    19.2500 na         1 NGX      -0.068700
     15 N2           5.8970    -0.1120    18.9860 nd         1 NGX      -0.518800
     16 C9           7.9180     0.4390    18.1180 cd         1 NGX       0.409400
     17 H2          15.2180    -0.3010    22.6600 ha         1 NGX       0.133000
     18 H3          11.7680    -2.1800    20.8850 ha         1 NGX       0.128000
     19 H4           7.2860     0.2930    21.3300 h1         1 NGX       0.077200
     20 H5           7.5200    -1.3770    20.8010 h1         1 NGX       0.077200
     21 H6           4.9460     0.3160    17.1330 h5         1 NGX       0.064100
     22 H7          11.2610     1.0650    23.7050 ha         1 NGX       0.124000
     23 H8           9.3150    -0.1110    22.9110 hc         1 NGX       0.062200
     24 H9           9.5190    -1.7190    22.2480 hc         1 NGX       0.062200
     25 H10          9.8100    -0.7850    19.9670 h1         1 NGX       0.039700
     26 H11         10.6330     1.2720    20.8730 ho         1 NGX       0.452000
     27 H12          8.9890     0.5960    18.0800 h5         1 NGX       0.059100
     28 H1          13.7280     1.2330    23.9460 ha         1 NGX       0.123000
@<TRIPOS>BOND
     1     1     7 1   
     2     1    16 2   
     3     2     3 ar  
     4     2     9 ar  
     5     2    28 1   
     6     3     4 ar  
     7     3    17 1   
     8     4     5 ar  
     9     4     8 1   
    10     5    10 ar  
    11     5    18 1   
    12     6    12 1   
    13     6    14 1   
    14     6    19 1   
    15     6    20 1   
    16     7    15 2   
    17     7    21 1   
    18     9    10 ar  
    19     9    22 1   
    20    10    11 1   
    21    11    12 1   
    22    11    23 1   
    23    11    24 1   
    24    12    13 1   
    25    12    25 1   
    26    13    26 1   
    27    14    15 1   
    28    14    16 1   
    29    16    27 1   
@<TRIPOS>SUBSTRUCTURE
     1 NGX         1 TEMP              0 ****  ****    0 ROOT
