@<TRIPOS>MOLECULE
NGX
   28    29     1     0     0
SMALL
abcg2


@<TRIPOS>ATOM
      1 N1           6.8600     0.1410    17.1720 nc         1 NGX      -0.701000
      2 C4          13.0930     0.6700    23.2690 ca         1 NGX      -0.099000
      3 C5          14.0570    -0.0550    22.5780 ca         1 NGX      -0.098000
      4 C6          13.6360    -1.0640    21.7220 ca         1 NGX       0.126000
      5 C7          12.2930    -1.3590    21.5450 ca         1 NGX      -0.103000
      6 C8           7.8600    -0.5800    20.5590 c3         1 NGX       0.091600
      7 C10          6.3480     1.1510    17.9240 cc         1 NGX       0.515900
      8 CL          14.8370    -1.9940    20.8430 cl         1 NGX      -0.209000
      9 C3          11.7410     0.3870    23.1030 ca         1 NGX      -0.104000
     10 C2          11.3270    -0.6290    22.2420 ca         1 NGX      -0.085300
     11 C1           9.8650    -0.9120    22.0210 c3         1 NGX      -0.066100
     12 C            9.3360    -0.2540    20.7380 c3         1 NGX       0.154300
     13 O            9.4550     1.1650    20.7740 oh         1 NGX      -0.646000
     14 N            7.3250    -0.0930    19.2970 na         1 NGX      -0.068700
     15 N2           6.6040     1.0520    19.2160 nd         1 NGX      -0.518800
     16 C9           7.4680    -0.6200    18.0710 cd         1 NGX       0.409400
     17 H2          15.1100     0.1550    22.7020 ha         1 NGX       0.133000
     18 H3          11.9960    -2.1520    20.8710 ha         1 NGX       0.128000
     19 H4           7.2730    -0.1230    21.3540 h1         1 NGX       0.077200
     20 H5           7.7200    -1.6600    20.5940 h1         1 NGX       0.077200
     21 H6           5.7740     1.9680    17.5160 h5         1 NGX       0.064100
     22 H7          11.0000     0.9570    23.6490 ha         1 NGX       0.124000
     23 H8           9.2820    -0.5430    22.8670 hc         1 NGX       0.062200
     24 H9           9.7020    -1.9890    21.9430 hc         1 NGX       0.062200
     25 H10          9.8910    -0.6500    19.8800 h1         1 NGX       0.039700
     26 H11         10.3940     1.3940    20.7800 ho         1 NGX       0.452000
     27 H12          8.0020    -1.5380    17.8860 h5         1 NGX       0.059100
     28 H1          13.4030     1.4580    23.9430 ha         1 NGX       0.123000
@<TRIPOS>BOND
     1     1     7 1   
     2     1    16 2   
     3     2     3 ar  
     4     2     9 ar  
     5     2    28 1   
     6     3     4 ar  
     7     3    17 1   
     8     4     5 ar  
     9     4     8 1   
    10     5    10 ar  
    11     5    18 1   
    12     6    12 1   
    13     6    14 1   
    14     6    19 1   
    15     6    20 1   
    16     7    15 2   
    17     7    21 1   
    18     9    10 ar  
    19     9    22 1   
    20    10    11 1   
    21    11    12 1   
    22    11    23 1   
    23    11    24 1   
    24    12    13 1   
    25    12    25 1   
    26    13    26 1   
    27    14    15 1   
    28    14    16 1   
    29    16    27 1   
@<TRIPOS>SUBSTRUCTURE
     1 NGX         1 TEMP              0 ****  ****    0 ROOT
