@<TRIPOS>MOLECULE
NGY
   33    33     1     0     0
SMALL
No Charge or Current Charge


@<TRIPOS>ATOM
      1 O1          17.9770     7.8330     4.3220 oh         1 NGY      -0.689000
      2 C1          18.8030     6.8430     3.7120 c6         1 NGY       0.377300
      3 C2          19.1730     7.1960     2.2290 c6         1 NGY       0.089700
      4 C3          17.8870     7.1450     1.3480 c6         1 NGY       0.158300
      5 C4          17.1790     5.7690     1.5020 c6         1 NGY       0.131300
      6 C5          16.8630     5.5220     3.0070 c6         1 NGY       0.125300
      7 C6          16.2160     4.1260     3.2610 c3         1 NGY       0.213600
      8 O3          18.1830     7.3780    -0.0390 oh         1 NGY      -0.661000
      9 O4          15.9770     5.7210     0.7100 oh         1 NGY      -0.745000
     10 O5          18.0910     5.5910     3.7820 os         1 NGY      -0.480000
     11 O6          15.0340     3.9890     2.4420 os         1 NGY      -0.617700
     12 N2          19.8500     8.5100     2.1120 ns         1 NGY      -0.492900
     13 C7          21.1420     8.7750     2.4920 c          1 NGY       0.609100
     14 O7          21.8640     7.9220     2.9870 o          1 NGY      -0.606100
     15 C8          21.6040    10.2060     2.2500 c3         1 NGY      -0.180100
     16 S           14.1670     2.6110     2.6670 s6         1 NGY       1.500300
     17 O7A         13.0910     2.7200     1.6740 o          1 NGY      -0.702533
     18 O8          15.1330     1.5360     2.4050 o          1 NGY      -0.702533
     19 O9          13.7190     2.6970     4.0630 o          1 NGY      -0.702533
     20 H1          19.7370     6.7480     4.2890 h2         1 NGY       0.062700
     21 H2          19.8670     6.4230     1.8690 h1         1 NGY       0.106700
     22 H3          17.1950     7.9230     1.7060 h1         1 NGY       0.046700
     23 H4          17.8710     4.9800     1.1700 h1         1 NGY       0.048700
     24 H5          16.1610     6.2880     3.3680 h1         1 NGY       0.065700
     25 H61         16.9540     3.3490     3.0200 h1         1 NGY       0.046700
     26 H62         15.9720     4.0510     4.3290 h1         1 NGY       0.046700
     27 HO3         17.4100     6.9970    -0.5170 ho         1 NGY       0.458000
     28 HN2         19.3340     9.2770     1.6980 hn         1 NGY       0.316500
     29 H81         20.9110    10.8940     2.7480 hc         1 NGY       0.053700
     30 H82         22.6400    10.3750     2.5660 hc         1 NGY       0.053700
     31 H83         21.4590    10.4550     1.1920 hc         1 NGY       0.053700
     32 HO4         15.4060     5.0490     1.1870 ho         1 NGY       0.560000
     33 HO1         17.7640     7.4700     5.2070 ho         1 NGY       0.454000
@<TRIPOS>BOND
     1     1     2 1   
     2     1    33 1   
     3     2     3 1   
     4     2    10 1   
     5     2    20 1   
     6     3     4 1   
     7     3    12 1   
     8     3    21 1   
     9     4     5 1   
    10     4     8 1   
    11     4    22 1   
    12     5     6 1   
    13     5     9 1   
    14     5    23 1   
    15     6     7 1   
    16     6    10 1   
    17     6    24 1   
    18     7    11 1   
    19     7    25 1   
    20     7    26 1   
    21     8    27 1   
    22     9    32 1   
    23    11    16 1   
    24    12    13 1   
    25    12    28 1   
    26    13    14 2   
    27    13    15 1   
    28    15    29 1   
    29    15    30 1   
    30    15    31 1   
    31    16    17 1   
    32    16    18 1   
    33    16    19 1   
@<TRIPOS>SUBSTRUCTURE
     1 NGY         1 TEMP              0 ****  ****    0 ROOT
