@<TRIPOS>MOLECULE
NGY
   33    33     1     0     0
SMALL
bcc


@<TRIPOS>ATOM
      1 O1          17.7150     7.9750     4.2400 oh         1 NGY      -0.626800
      2 C1          18.5380     6.9100     3.8910 c6         1 NGY       0.330900
      3 C2          19.1040     7.1860     2.4970 c6         1 NGY       0.089700
      4 C3          17.9970     7.1060     1.4510 c6         1 NGY       0.135100
      5 C4          17.2580     5.7760     1.5720 c6         1 NGY       0.108100
      6 C5          16.7790     5.5570     3.0130 c6         1 NGY       0.102100
      7 C6          16.2440     4.1520     3.2650 c3         1 NGY       0.190400
      8 O3          18.5890     7.2570     0.1860 oh         1 NGY      -0.598800
      9 O4          16.2000     5.8290     0.6470 oh         1 NGY      -0.622800
     10 O5          17.8670     5.6800     3.9120 os         1 NGY      -0.433600
     11 O6          15.1220     3.9470     2.4210 os         1 NGY      -0.594500
     12 N2          19.7790     8.4570     2.4690 ns         1 NGY      -0.559900
     13 C7          21.0410     8.6400     2.0340 c          1 NGY       0.676100
     14 O7          21.7660     7.7290     1.6620 o          1 NGY      -0.606100
     15 C8          21.5170    10.0720     2.0390 c3         1 NGY      -0.180100
     16 S           14.2310     2.5670     2.6500 s6         1 NGY       1.500300
     17 O7A         13.2550     2.7020     1.5740 o          1 NGY      -0.702533
     18 O8          15.1790     1.4640     2.4920 o          1 NGY      -0.702533
     19 O9          13.6840     2.6910     4.0010 o          1 NGY      -0.702533
     20 H1          19.3630     6.7930     4.6030 h2         1 NGY       0.062700
     21 H2          19.8440     6.4110     2.2850 h1         1 NGY       0.106700
     22 H3          17.2710     7.9130     1.6380 h1         1 NGY       0.046700
     23 H4          17.9680     4.9680     1.3270 h1         1 NGY       0.048700
     24 H5          15.9930     6.2880     3.2430 h1         1 NGY       0.065700
     25 H61         17.0300     3.4190     3.0540 h1         1 NGY       0.046700
     26 H62         15.9640     4.0620     4.3200 h1         1 NGY       0.046700
     27 HO3         17.8870     7.2800    -0.4710 ho         1 NGY       0.419000
     28 HN2         19.2440     9.2660     2.7440 hn         1 NGY       0.316500
     29 H81         20.7930    10.7770     2.4430 hc         1 NGY       0.053700
     30 H82         22.4360    10.1470     2.6200 hc         1 NGY       0.053700
     31 H83         21.7550    10.3730     1.0180 hc         1 NGY       0.053700
     32 HO4         15.6770     5.0220     0.7300 ho         1 NGY       0.461000
     33 HO1         17.5440     7.9520     5.1880 ho         1 NGY       0.415000
@<TRIPOS>BOND
     1     1     2 1   
     2     1    33 1   
     3     2     3 1   
     4     2    10 1   
     5     2    20 1   
     6     3     4 1   
     7     3    12 1   
     8     3    21 1   
     9     4     5 1   
    10     4     8 1   
    11     4    22 1   
    12     5     6 1   
    13     5     9 1   
    14     5    23 1   
    15     6     7 1   
    16     6    10 1   
    17     6    24 1   
    18     7    11 1   
    19     7    25 1   
    20     7    26 1   
    21     8    27 1   
    22     9    32 1   
    23    11    16 1   
    24    12    13 1   
    25    12    28 1   
    26    13    14 2   
    27    13    15 1   
    28    15    29 1   
    29    15    30 1   
    30    15    31 1   
    31    16    17 1   
    32    16    18 1   
    33    16    19 1   
@<TRIPOS>SUBSTRUCTURE
     1 NGY         1 TEMP              0 ****  ****    0 ROOT
