@<TRIPOS>MOLECULE
NGZ
   30    30     1     0     0
SMALL
bcc


@<TRIPOS>ATOM
      1 C1          14.5860   -17.5270    -2.5760 c6         1 NGZ       0.343900
      2 C2          13.4950   -17.8130    -1.5200 c6         1 NGZ       0.096700
      3 C3          13.7050   -19.2180    -0.9590 c6         1 NGZ       0.131100
      4 C4          15.0010   -19.1950    -0.1560 c6         1 NGZ       0.079100
      5 C5          16.1080   -18.4370    -0.9260 c6         1 NGZ       0.133100
      6 C6          16.5110   -17.1570    -0.2090 c3         1 NGZ       0.110400
      7 C7          11.1140   -17.0720    -1.4390 c          1 NGZ       0.683100
      8 C8          11.3410   -16.4420    -0.0870 c3         1 NGZ      -0.179100
      9 N2          12.1880   -17.5940    -2.0730 ns         1 NGZ      -0.560900
     10 O3          12.6000   -19.5580    -0.1640 oh         1 NGZ      -0.593800
     11 O4          15.3410   -20.5320     0.1290 oh         1 NGZ      -0.587800
     12 O5          15.7680   -18.2300    -2.2830 os         1 NGZ      -0.418600
     13 O6          17.5460   -16.5410    -0.9290 oh         1 NGZ      -0.579800
     14 O7          10.0090   -17.0870    -1.9620 o          1 NGZ      -0.601100
     15 O1          14.1470   -17.9780    -3.8090 oh         1 NGZ      -0.584800
     16 H1          14.7830   -16.4460    -2.6060 h2         1 NGZ       0.039700
     17 H2          13.6350   -17.0980    -0.7070 h1         1 NGZ       0.059700
     18 H3          13.8140   -19.9310    -1.7910 h1         1 NGZ       0.079700
     19 H4          14.7850   -18.6520     0.7770 h1         1 NGZ       0.038700
     20 H5          16.9910   -19.0820    -0.9650 h1         1 NGZ       0.098700
     21 H61         15.6490   -16.4850    -0.0850 h1         1 NGZ       0.019200
     22 H62         16.8240   -17.4410     0.8060 h1         1 NGZ       0.019200
     23 H81         10.4020   -16.0350     0.2800 hc         1 NGZ       0.059700
     24 H82         11.7130   -17.1680     0.6340 hc         1 NGZ       0.059700
     25 H83         12.0700   -15.6320    -0.1410 hc         1 NGZ       0.059700
     26 HN2         11.9970   -18.0280    -2.9650 hn         1 NGZ       0.330500
     27 HO3         12.7380   -20.4470     0.1780 ho         1 NGZ       0.423000
     28 HO4         15.9790   -20.5440     0.8500 ho         1 NGZ       0.410000
     29 HO6         17.7930   -15.7330    -0.4710 ho         1 NGZ       0.407000
     30 HO1         14.5640   -17.4660    -4.5090 ho         1 NGZ       0.427000
@<TRIPOS>BOND
     1     1     2 1   
     2     1    12 1   
     3     1    15 1   
     4     1    16 1   
     5     2     3 1   
     6     2     9 1   
     7     2    17 1   
     8     3     4 1   
     9     3    10 1   
    10     3    18 1   
    11     4     5 1   
    12     4    11 1   
    13     4    19 1   
    14     5     6 1   
    15     5    12 1   
    16     5    20 1   
    17     6    13 1   
    18     6    21 1   
    19     6    22 1   
    20     7     8 1   
    21     7     9 1   
    22     7    14 2   
    23     8    23 1   
    24     8    24 1   
    25     8    25 1   
    26     9    26 1   
    27    10    27 1   
    28    11    28 1   
    29    13    29 1   
    30    15    30 1   
@<TRIPOS>SUBSTRUCTURE
     1 NGZ         1 TEMP              0 ****  ****    0 ROOT
