@<TRIPOS>MOLECULE
NGZ
   30    30     1     0     0
SMALL
No Charge or Current Charge


@<TRIPOS>ATOM
      1 C1          14.5260   -16.9380    -2.0050 c6         1 NGZ       0.390300
      2 C2          13.2620   -17.5330    -1.2620 c6         1 NGZ       0.096700
      3 C3          13.6180   -18.9400    -0.6610 c6         1 NGZ       0.154300
      4 C4          15.0500   -18.9240    -0.0550 c6         1 NGZ       0.102300
      5 C5          16.0980   -18.5990    -1.1760 c6         1 NGZ       0.156300
      6 C6          17.2650   -17.6900    -0.6570 c3         1 NGZ       0.133600
      7 C7          10.7430   -17.5500    -1.7830 c          1 NGZ       0.616100
      8 C8          10.3900   -16.8770    -0.4550 c3         1 NGZ      -0.179100
      9 N2          12.0670   -17.6310    -2.1450 ns         1 NGZ      -0.493900
     10 O3          12.6890   -19.3350     0.3610 oh         1 NGZ      -0.656000
     11 O4          15.3390   -20.1720     0.6140 oh         1 NGZ      -0.710000
     12 O5          15.4540   -17.9780    -2.3260 os         1 NGZ      -0.465000
     13 O6          18.1980   -17.3170    -1.6870 oh         1 NGZ      -0.702000
     14 O7           9.8790   -17.9320    -2.5560 o          1 NGZ      -0.601100
     15 O1          14.2100   -16.3530    -3.2570 oh         1 NGZ      -0.647000
     16 H1          15.0190   -16.1930    -1.3630 h2         1 NGZ       0.039700
     17 H2          13.0380   -16.8480    -0.4340 h1         1 NGZ       0.059700
     18 H3          13.6100   -19.6780    -1.4780 h1         1 NGZ       0.079700
     19 H4          15.0770   -18.1080     0.6830 h1         1 NGZ       0.038700
     20 H5          16.5460   -19.5420    -1.5240 h1         1 NGZ       0.098700
     21 H61         16.8330   -16.7880    -0.2010 h1         1 NGZ       0.019200
     22 H62         17.7900   -18.2330     0.1400 h1         1 NGZ       0.019200
     23 H81          9.3090   -16.7680    -0.3170 hc         1 NGZ       0.059700
     24 H82         10.8390   -17.4350     0.3720 hc         1 NGZ       0.059700
     25 H83         10.9010   -15.9100    -0.3960 hc         1 NGZ       0.059700
     26 HN2         12.2270   -17.9430    -3.0940 hn         1 NGZ       0.330500
     27 HO3         13.1910   -19.9940     0.8950 ho         1 NGZ       0.462000
     28 HO4         16.1490   -20.0400     1.1630 ho         1 NGZ       0.509000
     29 HO6         18.8870   -16.7510    -1.2670 ho         1 NGZ       0.506000
     30 HO1         14.9920   -16.5690    -3.8080 ho         1 NGZ       0.466000
@<TRIPOS>BOND
     1     1     2 1   
     2     1    12 1   
     3     1    15 1   
     4     1    16 1   
     5     2     3 1   
     6     2     9 1   
     7     2    17 1   
     8     3     4 1   
     9     3    10 1   
    10     3    18 1   
    11     4     5 1   
    12     4    11 1   
    13     4    19 1   
    14     5     6 1   
    15     5    12 1   
    16     5    20 1   
    17     6    13 1   
    18     6    21 1   
    19     6    22 1   
    20     7     8 1   
    21     7     9 1   
    22     7    14 2   
    23     8    23 1   
    24     8    24 1   
    25     8    25 1   
    26     9    26 1   
    27    10    27 1   
    28    11    28 1   
    29    13    29 1   
    30    15    30 1   
@<TRIPOS>SUBSTRUCTURE
     1 NGZ         1 TEMP              0 ****  ****    0 ROOT
