@<TRIPOS>MOLECULE
NH0
   74    76     1     0     0
SMALL
abcg2


@<TRIPOS>ATOM
      1 C10        -15.2280   -33.8070    -6.8070 c3         1 NH0       0.032600
      2 C13        -14.9310   -30.5910    -4.1510 c3         1 NH0      -0.007100
      3 C15        -13.3370   -31.6750    -2.5190 ca         1 NH0      -0.100000
      4 C17        -10.9470   -31.5360    -2.8060 ca         1 NH0      -0.107000
      5 C20        -16.6170   -30.7480    -5.9750 c          1 NH0       0.597100
      6 C24        -15.8670   -29.1850    -9.3240 c3         1 NH0      -0.050100
      7 C26        -15.5540   -30.9920   -11.0570 ca         1 NH0      -0.165000
      8 C01        -14.3560   -37.3090   -11.2400 c3         1 NH0      -0.108433
      9 C02        -15.5720   -36.4880   -11.6560 c3         1 NH0       0.219000
     10 C03        -15.4080   -35.9700   -13.0800 c3         1 NH0      -0.108433
     11 C04        -16.8780   -37.2630   -11.5180 c3         1 NH0      -0.108433
     12 C06        -15.8620   -35.2450    -9.5410 c          1 NH0       0.647100
     13 C09        -16.4100   -33.5830    -7.7600 c3         1 NH0       0.147700
     14 C12        -15.3050   -31.3260    -5.4550 c3         1 NH0      -0.009700
     15 C14        -13.5410   -30.9130    -3.6680 ca         1 NH0      -0.082300
     16 C16        -12.0500   -31.9860    -2.0880 ca         1 NH0      -0.108500
     17 C18        -11.1390   -30.7710    -3.9530 ca         1 NH0      -0.108500
     18 C19        -12.4260   -30.4610    -4.3770 ca         1 NH0      -0.100000
     19 C23        -15.4260   -29.7230    -7.9600 c3         1 NH0       0.115000
     20 C25        -16.4090   -30.2430   -10.2470 ca         1 NH0      -0.052300
     21 C27        -16.0820   -31.9540   -11.9060 ca         1 NH0       0.337900
     22 C29        -18.2080   -31.5150   -11.2060 ca         1 NH0       0.337900
     23 C30        -17.7690   -30.5260   -10.3340 ca         1 NH0      -0.165000
     24 C31        -17.7120   -34.2420    -7.2730 c3         1 NH0      -0.056100
     25 C32        -18.8990   -33.8690    -8.1170 ca         1 NH0      -0.075300
     26 C33        -19.5840   -32.6740    -7.8880 ca         1 NH0      -0.105000
     27 C34        -20.6740   -32.3150    -8.6720 ca         1 NH0      -0.116500
     28 C35        -21.0960   -33.1470    -9.7060 ca         1 NH0      -0.121000
     29 C36        -20.4140   -34.3340    -9.9510 ca         1 NH0      -0.116500
     30 C37        -19.3260   -34.6910    -9.1610 ca         1 NH0      -0.105000
     31 N08        -16.0490   -33.9750    -9.1160 ns         1 NH0      -0.509900
     32 N22        -16.5870   -30.0840    -7.1490 ns         1 NH0      -0.516900
     33 N28        -17.3910   -32.2240   -11.9900 nb         1 NH0      -0.656000
     34 O05        -15.6420   -35.2440   -10.8720 os         1 NH0      -0.488100
     35 O07        -15.8850   -36.2340    -8.8250 o          1 NH0      -0.555000
     36 O21        -17.6610   -30.8640    -5.3320 o          1 NH0      -0.588100
     37 S11        -15.4280   -33.1220    -5.1360 ss         1 NH0      -0.373000
     38 H1         -15.0660   -34.8740    -6.6530 h1         1 NH0       0.085200
     39 H2         -14.3230   -33.3880    -7.2480 h1         1 NH0       0.085200
     40 H3         -15.0120   -29.5190    -4.3490 hc         1 NH0       0.065200
     41 H4         -15.6670   -30.8310    -3.3830 hc         1 NH0       0.065200
     42 H5         -14.1940   -32.0320    -1.9600 ha         1 NH0       0.109500
     43 H6          -9.9450   -31.7780    -2.4740 ha         1 NH0       0.113000
     44 H7         -14.9930   -28.7210    -9.7850 hc         1 NH0       0.062200
     45 H8         -16.6110   -28.3990    -9.1750 hc         1 NH0       0.062200
     46 H10        -14.4670   -37.6960   -10.2300 hc         1 NH0       0.050589
     47 H11        -14.2410   -38.1480   -11.9280 hc         1 NH0       0.050589
     48 H12        -13.4540   -36.6980   -11.2910 hc         1 NH0       0.050589
     49 H13        -15.3440   -36.8110   -13.7720 hc         1 NH0       0.050589
     50 H14        -16.2610   -35.3500   -13.3610 hc         1 NH0       0.050589
     51 H15        -14.4980   -35.3750   -13.1690 hc         1 NH0       0.050589
     52 H16        -17.0030   -37.6540   -10.5110 hc         1 NH0       0.050589
     53 H17        -17.7250   -36.6170   -11.7550 hc         1 NH0       0.050589
     54 H18        -16.8750   -38.0980   -12.2200 hc         1 NH0       0.050589
     55 H19        -16.5910   -32.5130    -7.8380 h1         1 NH0       0.053700
     56 H20        -14.5000   -31.1910    -6.1730 h1         1 NH0       0.070700
     57 H21        -11.9110   -32.5800    -1.1940 ha         1 NH0       0.113000
     58 H22        -10.2860   -30.4120    -4.5150 ha         1 NH0       0.113000
     59 H23        -12.5680   -29.8620    -5.2700 ha         1 NH0       0.109500
     60 H24        -14.7930   -30.5970    -8.1070 h1         1 NH0       0.046700
     61 H25        -14.8330   -28.9580    -7.4520 h1         1 NH0       0.046700
     62 H26        -15.4270   -32.5370   -12.5430 h4         1 NH0       0.028600
     63 H27        -19.2630   -31.7510   -11.2690 h4         1 NH0       0.028600
     64 H28        -18.4880   -29.9830    -9.7340 ha         1 NH0       0.122000
     65 H29        -17.8720   -33.9170    -6.2450 hc         1 NH0       0.079700
     66 H30        -17.5760   -35.3220    -7.2630 hc         1 NH0       0.079700
     67 H31        -19.2570   -32.0200    -7.0870 ha         1 NH0       0.121500
     68 H32        -21.1940   -31.3850    -8.4790 ha         1 NH0       0.110000
     69 H33        -21.9440   -32.8690   -10.3180 ha         1 NH0       0.109000
     70 H34        -20.7300   -34.9860   -10.7570 ha         1 NH0       0.110000
     71 H35        -18.8050   -35.6210    -9.3540 ha         1 NH0       0.121500
     72 H36        -16.0180   -33.2550    -9.8180 hn         1 NH0       0.325500
     73 H37        -17.4650   -29.6460    -7.3930 hn         1 NH0       0.314500
     74 H9         -14.4840   -30.8210   -11.0350 ha         1 NH0       0.122000
@<TRIPOS>BOND
     1     1    13 1   
     2     1    37 1   
     3     1    38 1   
     4     1    39 1   
     5     2    14 1   
     6     2    15 1   
     7     2    40 1   
     8     2    41 1   
     9     3    15 ar  
    10     3    16 ar  
    11     3    42 1   
    12     4    16 ar  
    13     4    17 ar  
    14     4    43 1   
    15     5    14 1   
    16     5    32 1   
    17     5    36 2   
    18     6    19 1   
    19     6    20 1   
    20     6    44 1   
    21     6    45 1   
    22     7    20 ar  
    23     7    21 ar  
    24     7    74 1   
    25     8     9 1   
    26     8    46 1   
    27     8    47 1   
    28     8    48 1   
    29     9    10 1   
    30     9    11 1   
    31     9    34 1   
    32    10    49 1   
    33    10    50 1   
    34    10    51 1   
    35    11    52 1   
    36    11    53 1   
    37    11    54 1   
    38    12    31 1   
    39    12    34 1   
    40    12    35 2   
    41    13    24 1   
    42    13    31 1   
    43    13    55 1   
    44    14    37 1   
    45    14    56 1   
    46    15    18 ar  
    47    16    57 1   
    48    17    18 ar  
    49    17    58 1   
    50    18    59 1   
    51    19    32 1   
    52    19    60 1   
    53    19    61 1   
    54    20    23 ar  
    55    21    33 ar  
    56    21    62 1   
    57    22    23 ar  
    58    22    33 ar  
    59    22    63 1   
    60    23    64 1   
    61    24    25 1   
    62    24    65 1   
    63    24    66 1   
    64    25    26 ar  
    65    25    30 ar  
    66    26    27 ar  
    67    26    67 1   
    68    27    28 ar  
    69    27    68 1   
    70    28    29 ar  
    71    28    69 1   
    72    29    30 ar  
    73    29    70 1   
    74    30    71 1   
    75    31    72 1   
    76    32    73 1   
@<TRIPOS>SUBSTRUCTURE
     1 NH0         1 TEMP              0 ****  ****    0 ROOT
