@<TRIPOS>MOLECULE
NH0
   74    76     1     0     0
SMALL
No Charge or Current Charge


@<TRIPOS>ATOM
      1 C10        -15.3200   -33.6940    -6.7940 c3         1 NH0       0.032600
      2 C13        -14.8330   -30.4440    -4.1090 c3         1 NH0      -0.007100
      3 C15        -13.4220   -31.7580    -2.4420 ca         1 NH0      -0.100000
      4 C17        -10.9940   -31.8280    -2.6140 ca         1 NH0      -0.107000
      5 C20        -16.5010   -30.4560    -6.0430 c          1 NH0       0.597100
      6 C24        -15.5380   -29.4320    -9.6000 c3         1 NH0      -0.050100
      7 C26        -15.6930   -31.2790   -11.3520 ca         1 NH0      -0.165000
      8 C01        -14.0560   -36.8180   -11.2650 c3         1 NH0      -0.108433
      9 C02        -15.4490   -36.2710   -11.6690 c3         1 NH0       0.219000
     10 C03        -15.4110   -35.7570   -13.1250 c3         1 NH0      -0.108433
     11 C04        -16.5840   -37.3150   -11.5080 c3         1 NH0      -0.108433
     12 C06        -15.8980   -35.1390    -9.5240 c          1 NH0       0.647100
     13 C09        -16.5490   -33.4940    -7.7230 c3         1 NH0       0.147700
     14 C12        -15.2570   -31.1510    -5.4180 c3         1 NH0      -0.009700
     15 C14        -13.4870   -30.9310    -3.5820 ca         1 NH0      -0.082300
     16 C16        -12.1790   -32.2050    -1.9600 ca         1 NH0      -0.108500
     17 C18        -11.0520   -31.0030    -3.7490 ca         1 NH0      -0.108500
     18 C19        -12.2950   -30.5560    -4.2310 ca         1 NH0      -0.100000
     19 C23        -15.2130   -29.8890    -8.1650 c3         1 NH0       0.115000
     20 C25        -16.3300   -30.4600   -10.4020 ca         1 NH0      -0.052300
     21 C27        -16.4560   -32.1800   -12.1140 ca         1 NH0       0.337900
     22 C29        -18.4090   -31.5360   -11.0520 ca         1 NH0       0.337900
     23 C30        -17.7220   -30.6030   -10.2550 ca         1 NH0      -0.165000
     24 C31        -17.8360   -34.1780    -7.1940 c3         1 NH0      -0.056100
     25 C32        -19.0580   -33.8800    -8.0540 ca         1 NH0      -0.075300
     26 C33        -19.7900   -32.6930    -7.8510 ca         1 NH0      -0.105000
     27 C34        -20.9270   -32.4190    -8.6310 ca         1 NH0      -0.116500
     28 C35        -21.3350   -33.3270    -9.6220 ca         1 NH0      -0.121000
     29 C36        -20.6050   -34.5080    -9.8350 ca         1 NH0      -0.116500
     30 C37        -19.4700   -34.7850    -9.0520 ca         1 NH0      -0.105000
     31 N08        -16.2510   -33.8890    -9.1030 ns         1 NH0      -0.509900
     32 N22        -16.3950   -29.8930    -7.2990 ns         1 NH0      -0.516900
     33 N28        -17.7930   -32.3130   -11.9710 nb         1 NH0      -0.656000
     34 O05        -15.7590   -35.0970   -10.8830 os         1 NH0      -0.488100
     35 O07        -15.7400   -36.1050    -8.7970 o          1 NH0      -0.555000
     36 O21        -17.5720   -30.3890    -5.4590 o          1 NH0      -0.588100
     37 S11        -15.5480   -32.9680    -5.0970 ss         1 NH0      -0.373000
     38 H1         -15.1240   -34.7670    -6.6810 h1         1 NH0       0.085200
     39 H2         -14.4330   -33.2420    -7.2570 h1         1 NH0       0.085200
     40 H3         -14.7760   -29.3640    -4.2940 hc         1 NH0       0.065200
     41 H4         -15.6180   -30.5800    -3.3550 hc         1 NH0       0.065200
     42 H5         -14.3340   -32.0590    -1.9320 ha         1 NH0       0.109500
     43 H6         -10.0320   -32.1750    -2.2410 ha         1 NH0       0.113000
     44 H7         -14.5920   -29.2180   -10.1110 hc         1 NH0       0.062200
     45 H8         -16.0780   -28.4780    -9.5630 hc         1 NH0       0.062200
     46 H10        -14.0770   -37.3190   -10.2920 hc         1 NH0       0.050589
     47 H11        -13.7080   -37.5540   -12.0000 hc         1 NH0       0.050589
     48 H12        -13.3170   -36.0080   -11.2220 hc         1 NH0       0.050589
     49 H13        -15.1870   -36.5740   -13.8210 hc         1 NH0       0.050589
     50 H14        -16.3770   -35.3240   -13.4110 hc         1 NH0       0.050589
     51 H15        -14.6400   -34.9870   -13.2470 hc         1 NH0       0.050589
     52 H16        -16.5610   -37.7980   -10.5250 hc         1 NH0       0.050589
     53 H17        -17.5660   -36.8460   -11.6400 hc         1 NH0       0.050589
     54 H18        -16.4840   -38.1070   -12.2600 hc         1 NH0       0.050589
     55 H19        -16.7590   -32.4210    -7.7660 h1         1 NH0       0.053700
     56 H20        -14.4120   -31.0750    -6.1080 h1         1 NH0       0.070700
     57 H21        -12.1360   -32.8450    -1.0820 ha         1 NH0       0.113000
     58 H22        -10.1350   -30.7100    -4.2560 ha         1 NH0       0.113000
     59 H23        -12.3300   -29.9160    -5.1110 ha         1 NH0       0.109500
     60 H24        -14.7810   -30.8980    -8.2090 h1         1 NH0       0.046700
     61 H25        -14.4680   -29.2100    -7.7290 h1         1 NH0       0.046700
     62 H26        -15.9810   -32.8120   -12.8630 h4         1 NH0       0.028600
     63 H27        -19.4880   -31.6520   -10.9640 h4         1 NH0       0.028600
     64 H28        -18.2770   -29.9930    -9.5490 ha         1 NH0       0.122000
     65 H29        -18.0300   -33.8400    -6.1700 hc         1 NH0       0.079700
     66 H30        -17.6740   -35.2590    -7.1210 hc         1 NH0       0.079700
     67 H31        -19.4800   -31.9850    -7.0850 ha         1 NH0       0.121500
     68 H32        -21.4900   -31.5030    -8.4670 ha         1 NH0       0.110000
     69 H33        -22.2140   -33.1140   -10.2270 ha         1 NH0       0.109000
     70 H34        -20.9180   -35.2100   -10.6050 ha         1 NH0       0.110000
     71 H35        -18.9120   -35.7020    -9.2220 ha         1 NH0       0.121500
     72 H36        -16.3820   -33.2090    -9.8400 hn         1 NH0       0.325500
     73 H37        -17.2330   -29.4360    -7.6370 hn         1 NH0       0.314500
     74 H9         -14.6210   -31.2130   -11.5170 ha         1 NH0       0.122000
@<TRIPOS>BOND
     1     1    13 1   
     2     1    37 1   
     3     1    38 1   
     4     1    39 1   
     5     2    14 1   
     6     2    15 1   
     7     2    40 1   
     8     2    41 1   
     9     3    15 ar  
    10     3    16 ar  
    11     3    42 1   
    12     4    16 ar  
    13     4    17 ar  
    14     4    43 1   
    15     5    14 1   
    16     5    32 1   
    17     5    36 2   
    18     6    19 1   
    19     6    20 1   
    20     6    44 1   
    21     6    45 1   
    22     7    20 ar  
    23     7    21 ar  
    24     7    74 1   
    25     8     9 1   
    26     8    46 1   
    27     8    47 1   
    28     8    48 1   
    29     9    10 1   
    30     9    11 1   
    31     9    34 1   
    32    10    49 1   
    33    10    50 1   
    34    10    51 1   
    35    11    52 1   
    36    11    53 1   
    37    11    54 1   
    38    12    31 1   
    39    12    34 1   
    40    12    35 2   
    41    13    24 1   
    42    13    31 1   
    43    13    55 1   
    44    14    37 1   
    45    14    56 1   
    46    15    18 ar  
    47    16    57 1   
    48    17    18 ar  
    49    17    58 1   
    50    18    59 1   
    51    19    32 1   
    52    19    60 1   
    53    19    61 1   
    54    20    23 ar  
    55    21    33 ar  
    56    21    62 1   
    57    22    23 ar  
    58    22    33 ar  
    59    22    63 1   
    60    23    64 1   
    61    24    25 1   
    62    24    65 1   
    63    24    66 1   
    64    25    26 ar  
    65    25    30 ar  
    66    26    27 ar  
    67    26    67 1   
    68    27    28 ar  
    69    27    68 1   
    70    28    29 ar  
    71    28    69 1   
    72    29    30 ar  
    73    29    70 1   
    74    30    71 1   
    75    31    72 1   
    76    32    73 1   
@<TRIPOS>SUBSTRUCTURE
     1 NH0         1 TEMP              0 ****  ****    0 ROOT
