@<TRIPOS>MOLECULE
NH1
   72    75     1     0     0
SMALL
No Charge or Current Charge


@<TRIPOS>ATOM
      1 O4           2.4610    -1.5320     8.6540 oh         1 NH1      -0.534100
      2 C23          2.1040    -1.2240     7.3760 ca         1 NH1       0.138100
      3 C20          1.8190    -2.2450     6.4550 ca         1 NH1      -0.174000
      4 C17          1.4510    -1.9200     5.1370 ca         1 NH1      -0.068500
      5 C29          1.3670    -0.5720     4.7360 ca         1 NH1      -0.122300
      6 C14          1.6510     0.4470     5.6660 ca         1 NH1      -0.068500
      7 C25          2.0190     0.1190     6.9830 ca         1 NH1      -0.174000
      8 C8           0.9600    -0.2190     3.3110 c3         1 NH1      -0.021100
      9 C7          -0.5730    -0.0140     3.1880 c3         1 NH1      -0.066400
     10 C3          -1.1560     0.2430     1.7510 c6         1 NH1       0.228000
     11 O2          -0.6790    -0.8540     0.9410 os         1 NH1      -0.453100
     12 C1          -0.7630    -0.8590    -0.4320 c          1 NH1       0.699300
     13 O1          -0.6650    -1.8960    -1.0700 o          1 NH1      -0.490000
     14 C6          -0.8950     0.4990    -1.0650 ce         1 NH1      -0.289600
     15 S1          -1.1750     0.4810    -2.8380 ss         1 NH1      -0.089600
     16 C21          0.4650     0.5480    -3.5870 ca         1 NH1      -0.136000
     17 C24          1.4390     1.3200    -2.9180 ca         1 NH1      -0.061000
     18 C12          2.7480     1.4430    -3.4030 ca         1 NH1      -0.140300
     19 C2           3.0920     0.7800    -4.5900 ca         1 NH1       0.302000
     20 N1           4.3600     0.8680    -5.1060 nv         1 NH1      -1.072000
     21 C15          2.1390     0.0140    -5.2700 ca         1 NH1      -0.183000
     22 C18          0.8010    -0.1340    -4.8050 ca         1 NH1       0.022700
     23 C26         -0.2180    -1.0160    -5.6230 c3         1 NH1       0.002300
     24 C10          0.4170    -1.6510    -6.9000 c3         1 NH1      -0.085767
     25 C27         -0.7280    -2.2150    -4.7710 c3         1 NH1      -0.085767
     26 C9          -1.4110    -0.1560    -6.1330 c3         1 NH1      -0.085767
     27 C11          3.7600     2.2920    -2.6320 c3         1 NH1      -0.037800
     28 C5          -0.8680     1.6170    -0.3210 c2         1 NH1       0.215900
     29 O3          -1.0390     2.8470    -0.8230 oh         1 NH1      -0.513100
     30 C4          -0.6260     1.5790     1.1640 c6         1 NH1      -0.087200
     31 C22         -2.7350     0.2260     1.7320 c5         1 NH1      -0.093700
     32 C13         -3.4320    -1.0970     2.1620 c5         1 NH1      -0.072900
     33 C28         -4.9290    -0.6990     2.0620 c5         1 NH1      -0.080900
     34 C16         -4.9650     0.8020     2.4980 c5         1 NH1      -0.080900
     35 C19         -3.4730     1.2050     2.6910 c5         1 NH1      -0.072900
     36 H37          2.4680    -2.5080     8.7480 ho         1 NH1       0.464000
     37 H35          1.8810    -3.2890     6.7510 ha         1 NH1       0.120500
     38 H34          1.2290    -2.7150     4.4290 ha         1 NH1       0.112500
     39 H33          1.5850     1.4920     5.3700 ha         1 NH1       0.112500
     40 H36          2.2380     0.9090     7.6970 ha         1 NH1       0.120500
     41 H6           1.2830    -1.0130     2.6270 hc         1 NH1       0.054700
     42 H7           1.4900     0.6880     2.9990 hc         1 NH1       0.054700
     43 H4          -0.8490     0.8170     3.8480 hc         1 NH1       0.057700
     44 H5          -1.0440    -0.9040     3.6190 hc         1 NH1       0.057700
     45 H9           1.1830     1.8420    -2.0030 ha         1 NH1       0.103000
     46 H13          4.6370     0.2670    -5.8790 hn         1 NH1       0.447500
     47 H14          5.0970     1.3050    -4.5570 hn         1 NH1       0.447500
     48 H8           2.4770    -0.4660    -6.1790 ha         1 NH1       0.113000
     49 H15         -0.3150    -2.2590    -7.4470 hc         1 NH1       0.038478
     50 H16          0.7740    -0.8800    -7.5950 hc         1 NH1       0.038478
     51 H17          1.2540    -2.3120    -6.6430 hc         1 NH1       0.038478
     52 H18          0.1150    -2.7580    -4.3270 hc         1 NH1       0.038478
     53 H19         -1.3970    -1.9110    -3.9620 hc         1 NH1       0.038478
     54 H20         -1.2950    -2.9230    -5.3880 hc         1 NH1       0.038478
     55 H21         -1.0460     0.7240    -6.6760 hc         1 NH1       0.038478
     56 H22         -2.0450    -0.7320    -6.8180 hc         1 NH1       0.038478
     57 H23         -2.0620     0.1930    -5.3290 hc         1 NH1       0.038478
     58 H10          4.6120     1.6860    -2.3010 hc         1 NH1       0.038367
     59 H11          4.1460     3.1080    -3.2540 hc         1 NH1       0.038367
     60 H12          3.3170     2.7460    -1.7380 hc         1 NH1       0.038367
     61 H3          -1.2030     2.7300    -1.7820 ho         1 NH1       0.502000
     62 H1           0.4520     1.6830     1.3240 hc         1 NH1       0.086200
     63 H2          -1.0940     2.4380     1.6600 hc         1 NH1       0.086200
     64 H32         -3.0200     0.4550     0.6980 hc         1 NH1       0.057700
     65 H24         -3.1780    -1.3990     3.1840 hc         1 NH1       0.049450
     66 H25         -3.1860    -1.9380     1.5030 hc         1 NH1       0.049450
     67 H26         -5.5620    -1.3310     2.6960 hc         1 NH1       0.044200
     68 H27         -5.2960    -0.8120     1.0350 hc         1 NH1       0.044200
     69 H28         -5.5400     0.9480     3.4200 hc         1 NH1       0.044200
     70 H29         -5.4440     1.4160     1.7260 hc         1 NH1       0.044200
     71 H30         -3.1690     1.0690     3.7350 hc         1 NH1       0.049450
     72 H31         -3.3040     2.2580     2.4400 hc         1 NH1       0.049450
@<TRIPOS>BOND
     1     1     2 1   
     2     1    36 1   
     3     2     3 ar  
     4     2     7 ar  
     5     3     4 ar  
     6     3    37 1   
     7     4     5 ar  
     8     4    38 1   
     9     5     6 ar  
    10     5     8 1   
    11     6     7 ar  
    12     6    39 1   
    13     7    40 1   
    14     8     9 1   
    15     8    41 1   
    16     8    42 1   
    17     9    10 1   
    18     9    43 1   
    19     9    44 1   
    20    10    11 1   
    21    10    30 1   
    22    10    31 1   
    23    11    12 1   
    24    12    13 2   
    25    12    14 1   
    26    14    15 1   
    27    14    28 2   
    28    15    16 1   
    29    16    17 ar  
    30    16    22 ar  
    31    17    18 ar  
    32    17    45 1   
    33    18    19 ar  
    34    18    27 1   
    35    19    20 1   
    36    19    21 ar  
    37    20    46 1   
    38    20    47 1   
    39    21    22 ar  
    40    21    48 1   
    41    22    23 1   
    42    23    24 1   
    43    23    25 1   
    44    23    26 1   
    45    24    49 1   
    46    24    50 1   
    47    24    51 1   
    48    25    52 1   
    49    25    53 1   
    50    25    54 1   
    51    26    55 1   
    52    26    56 1   
    53    26    57 1   
    54    27    58 1   
    55    27    59 1   
    56    27    60 1   
    57    28    29 1   
    58    28    30 1   
    59    29    61 1   
    60    30    62 1   
    61    30    63 1   
    62    31    32 1   
    63    31    35 1   
    64    31    64 1   
    65    32    33 1   
    66    32    65 1   
    67    32    66 1   
    68    33    34 1   
    69    33    67 1   
    70    33    68 1   
    71    34    35 1   
    72    34    69 1   
    73    34    70 1   
    74    35    71 1   
    75    35    72 1   
@<TRIPOS>SUBSTRUCTURE
     1 NH1         1 TEMP              0 ****  ****    0 ROOT
