@<TRIPOS>MOLECULE
NH1
   72    75     1     0     0
SMALL
abcg2


@<TRIPOS>ATOM
      1 O4           2.4380    -0.9130     8.5410 oh         1 NH1      -0.534100
      2 C23          2.0500    -0.8160     7.2520 ca         1 NH1       0.138100
      3 C20          1.7870    -1.9280     6.4580 ca         1 NH1      -0.174000
      4 C17          1.3980    -1.7610     5.1360 ca         1 NH1      -0.068500
      5 C29          1.2620    -0.4970     4.5710 ca         1 NH1      -0.122300
      6 C14          1.5250     0.6040     5.3840 ca         1 NH1      -0.068500
      7 C25          1.9140     0.4590     6.7050 ca         1 NH1      -0.174000
      8 C8           0.8230    -0.3210     3.1440 c3         1 NH1      -0.021100
      9 C7          -0.6850    -0.0750     3.0550 c3         1 NH1      -0.066400
     10 C3          -1.2280     0.2080     1.6530 c6         1 NH1       0.228000
     11 O2          -0.6810    -0.8240     0.8040 os         1 NH1      -0.453100
     12 C1          -0.6740    -0.7120    -0.5280 c          1 NH1       0.699300
     13 O1          -0.4630    -1.7020    -1.1860 o          1 NH1      -0.490000
     14 C6          -0.8830     0.6120    -1.1050 ce         1 NH1      -0.289600
     15 S1          -1.1210     0.7730    -2.8340 ss         1 NH1      -0.089600
     16 C21          0.5300     0.5960    -3.5070 ca         1 NH1      -0.136000
     17 C24          1.5710     1.2030    -2.8100 ca         1 NH1      -0.061000
     18 C12          2.8880     1.1720    -3.2310 ca         1 NH1      -0.140300
     19 C2           3.1700     0.5130    -4.4350 ca         1 NH1       0.302000
     20 N1           4.4490     0.5040    -4.9510 nv         1 NH1      -1.072000
     21 C15          2.1210    -0.0790    -5.1410 ca         1 NH1      -0.183000
     22 C18          0.7920    -0.0660    -4.7190 ca         1 NH1       0.022700
     23 C26         -0.2740    -0.7670    -5.5740 c3         1 NH1       0.002300
     24 C10          0.3080    -1.3340    -6.8750 c3         1 NH1      -0.085767
     25 C27         -0.8670    -1.9550    -4.8030 c3         1 NH1      -0.085767
     26 C9          -1.3710     0.2210    -6.0010 c3         1 NH1      -0.085767
     27 C11          3.9740     1.8430    -2.4450 c3         1 NH1      -0.037800
     28 C5          -0.9150     1.7080    -0.3080 c2         1 NH1       0.215900
     29 O3          -1.0330     2.9430    -0.7480 oh         1 NH1      -0.513100
     30 C4          -0.7560     1.5760     1.1650 c6         1 NH1      -0.087200
     31 C22         -2.7610     0.1090     1.5890 c5         1 NH1      -0.093700
     32 C13         -3.3410    -1.3080     1.8020 c5         1 NH1      -0.072900
     33 C28         -4.6730    -1.1070     2.5560 c5         1 NH1      -0.080900
     34 C16         -4.9340     0.4010     2.5250 c5         1 NH1      -0.080900
     35 C19         -3.5310     0.9970     2.5730 c5         1 NH1      -0.072900
     36 H37          2.5090    -1.8380     8.8000 ho         1 NH1       0.464000
     37 H35          1.8940    -2.9280     6.8660 ha         1 NH1       0.120500
     38 H34          1.2040    -2.6410     4.5330 ha         1 NH1       0.112500
     39 H33          1.4290     1.6040     4.9750 ha         1 NH1       0.112500
     40 H36          2.1200     1.3300     7.3140 ha         1 NH1       0.120500
     41 H6           1.0920    -1.2080     2.5700 hc         1 NH1       0.054700
     42 H7           1.3760     0.5140     2.7050 hc         1 NH1       0.054700
     43 H4          -0.9430     0.7760     3.6900 hc         1 NH1       0.057700
     44 H5          -1.2060    -0.9360     3.4810 hc         1 NH1       0.057700
     45 H9           1.3550     1.7250    -1.8850 ha         1 NH1       0.103000
     46 H13          4.6240    -0.1890    -5.6620 hn         1 NH1       0.447500
     47 H14          5.2020     0.5400    -4.2820 hn         1 NH1       0.447500
     48 H8           2.3810    -0.5760    -6.0650 ha         1 NH1       0.113000
     49 H15         -0.4950    -1.8050    -7.4440 hc         1 NH1       0.038478
     50 H16          0.7430    -0.5600    -7.5100 hc         1 NH1       0.038478
     51 H17          1.0670    -2.0970    -6.6950 hc         1 NH1       0.038478
     52 H18         -0.0960    -2.7040    -4.6110 hc         1 NH1       0.038478
     53 H19         -1.2990    -1.6710    -3.8470 hc         1 NH1       0.038478
     54 H20         -1.6480    -2.4320    -5.4000 hc         1 NH1       0.038478
     55 H21         -0.9440     1.0580    -6.5570 hc         1 NH1       0.038478
     56 H22         -2.0820    -0.2820    -6.6600 hc         1 NH1       0.038478
     57 H23         -1.9460     0.6290    -5.1720 hc         1 NH1       0.038478
     58 H10          4.7420     1.1360    -2.1190 hc         1 NH1       0.038367
     59 H11          4.4800     2.6120    -3.0340 hc         1 NH1       0.038367
     60 H12          3.5750     2.3200    -1.5510 hc         1 NH1       0.038367
     61 H3          -1.0940     2.9380    -1.7220 ho         1 NH1       0.502000
     62 H1           0.3000     1.7440     1.3980 hc         1 NH1       0.086200
     63 H2          -1.3100     2.3640     1.6780 hc         1 NH1       0.086200
     64 H32         -3.0680     0.4330     0.5870 hc         1 NH1       0.057700
     65 H24         -2.6700    -1.9490     2.3750 hc         1 NH1       0.049450
     66 H25         -3.4940    -1.8040     0.8430 hc         1 NH1       0.049450
     67 H26         -4.5670    -1.4360     3.5920 hc         1 NH1       0.044200
     68 H27         -5.4900    -1.6840     2.1230 hc         1 NH1       0.044200
     69 H28         -5.5700     0.7410     3.3430 hc         1 NH1       0.044200
     70 H29         -5.4230     0.6870     1.5900 hc         1 NH1       0.044200
     71 H30         -3.1350     0.9060     3.5880 hc         1 NH1       0.049450
     72 H31         -3.5070     2.0540     2.3040 hc         1 NH1       0.049450
@<TRIPOS>BOND
     1     1     2 1   
     2     1    36 1   
     3     2     3 ar  
     4     2     7 ar  
     5     3     4 ar  
     6     3    37 1   
     7     4     5 ar  
     8     4    38 1   
     9     5     6 ar  
    10     5     8 1   
    11     6     7 ar  
    12     6    39 1   
    13     7    40 1   
    14     8     9 1   
    15     8    41 1   
    16     8    42 1   
    17     9    10 1   
    18     9    43 1   
    19     9    44 1   
    20    10    11 1   
    21    10    30 1   
    22    10    31 1   
    23    11    12 1   
    24    12    13 2   
    25    12    14 1   
    26    14    15 1   
    27    14    28 2   
    28    15    16 1   
    29    16    17 ar  
    30    16    22 ar  
    31    17    18 ar  
    32    17    45 1   
    33    18    19 ar  
    34    18    27 1   
    35    19    20 1   
    36    19    21 ar  
    37    20    46 1   
    38    20    47 1   
    39    21    22 ar  
    40    21    48 1   
    41    22    23 1   
    42    23    24 1   
    43    23    25 1   
    44    23    26 1   
    45    24    49 1   
    46    24    50 1   
    47    24    51 1   
    48    25    52 1   
    49    25    53 1   
    50    25    54 1   
    51    26    55 1   
    52    26    56 1   
    53    26    57 1   
    54    27    58 1   
    55    27    59 1   
    56    27    60 1   
    57    28    29 1   
    58    28    30 1   
    59    29    61 1   
    60    30    62 1   
    61    30    63 1   
    62    31    32 1   
    63    31    35 1   
    64    31    64 1   
    65    32    33 1   
    66    32    65 1   
    67    32    66 1   
    68    33    34 1   
    69    33    67 1   
    70    33    68 1   
    71    34    35 1   
    72    34    69 1   
    73    34    70 1   
    74    35    71 1   
    75    35    72 1   
@<TRIPOS>SUBSTRUCTURE
     1 NH1         1 TEMP              0 ****  ****    0 ROOT
