@<TRIPOS>MOLECULE
NH3
    4     3     1     0     0
SMALL
No Charge or Current Charge


@<TRIPOS>ATOM
      1 N            0.0510     0.0650    -0.0220 n9         1 NH3      -1.127000
      2 HN1          0.4790    -0.3870     0.7960 hn         1 NH3       0.376000
      3 HN2          0.5130    -0.4060    -0.8110 hn         1 NH3       0.376000
      4 HN3         -0.8940    -0.3380    -0.0370 hn         1 NH3       0.376000
@<TRIPOS>BOND
     1     1     2 1   
     2     1     3 1   
     3     1     4 1   
@<TRIPOS>SUBSTRUCTURE
     1 NH3         1 TEMP              0 ****  ****    0 ROOT
