@<TRIPOS>MOLECULE
NH4
    5     4     1     0     0
SMALL
abcg2


@<TRIPOS>ATOM
      1 N           11.0920    19.1500    34.7020 n+         1 NH4      -1.126000
      2 HN1         12.1080    19.0830    34.6670 hn         1 NH4       0.531250
      3 HN2         10.7820    19.1160    35.6710 hn         1 NH4       0.531250
      4 HN3         10.7980    20.0290    34.2800 hn         1 NH4       0.531250
      5 HN4         10.6840    18.3730    34.1870 hn         1 NH4       0.531250
@<TRIPOS>BOND
     1     1     2 1   
     2     1     3 1   
     3     1     4 1   
     4     1     5 1   
@<TRIPOS>SUBSTRUCTURE
     1 NH4         1 TEMP              0 ****  ****    0 ROOT
