@<TRIPOS>MOLECULE
NH4
    5     4     1     0     0
SMALL
No Charge or Current Charge


@<TRIPOS>ATOM
      1 N           11.0930    19.1500    34.7010 n+         1 NH4      -1.126000
      2 HN1         12.1190    19.0820    34.6670 hn         1 NH4       0.531250
      3 HN2         10.7790    19.1160    35.6810 hn         1 NH4       0.531250
      4 HN3         10.7940    20.0380    34.2760 hn         1 NH4       0.531250
      5 HN4         10.6790    18.3650    34.1810 hn         1 NH4       0.531250
@<TRIPOS>BOND
     1     1     2 1   
     2     1     3 1   
     3     1     4 1   
     4     1     5 1   
@<TRIPOS>SUBSTRUCTURE
     1 NH4         1 TEMP              0 ****  ****    0 ROOT
