@<TRIPOS>MOLECULE
NH5
   77    80     1     0     0
SMALL
abcg2


@<TRIPOS>ATOM
      1 C1         -18.6950   -61.3270     3.0720 ca         1 NH5      -0.101000
      2 C2         -18.0860   -60.9800     4.2690 ca         1 NH5      -0.090000
      3 C3         -16.9520   -61.6570     4.6940 ca         1 NH5       0.122000
      4 C4         -16.4470   -62.7000     3.9200 ca         1 NH5       0.125000
      5 C5         -17.0720   -63.0520     2.7300 ca         1 NH5      -0.105000
      6 C6         -18.2030   -62.3690     2.2860 ca         1 NH5      -0.072300
      7 C7         -18.8720   -62.7350     0.9860 c3         1 NH5      -0.075100
      8 C8         -17.9070   -62.8280    -0.2140 c3         1 NH5       0.167800
      9 N9         -17.0180   -61.6910    -0.4270 n7         1 NH5      -0.872400
     10 C10        -17.6930   -60.4020    -0.5540 c3         1 NH5       0.170800
     11 C11        -16.6710   -59.3230    -0.8760 c3         1 NH5      -0.155400
     12 C12        -17.2920   -57.9400    -0.9810 c          1 NH5       0.594100
     13 O13        -18.5200   -57.8060    -0.9940 o          1 NH5      -0.617100
     14 N14        -16.4630   -56.8640    -1.0280 n          1 NH5      -0.418800
     15 C15        -17.0820   -55.5320    -1.0570 c3         1 NH5       0.086000
     16 C16        -17.7820   -55.1560     0.2450 c3         1 NH5       0.136800
     17 N17        -16.8640   -55.1150     1.3890 n7         1 NH5      -0.861400
     18 C18        -17.4650   -55.5590     2.6450 c3         1 NH5       0.159800
     19 C19        -17.6870   -57.0830     2.7340 c3         1 NH5      -0.066100
     20 C20        -18.3630   -57.4900     4.0110 ca         1 NH5      -0.084300
     21 C21        -19.7270   -57.7760     4.0570 ca         1 NH5      -0.087000
     22 C22        -20.3670   -58.1130     5.2430 ca         1 NH5      -0.130000
     23 C23        -19.6440   -58.1850     6.4270 ca         1 NH5       0.112100
     24 C24        -18.2670   -57.9490     6.4040 ca         1 NH5      -0.150000
     25 C25        -17.6530   -57.5770     5.2070 ca         1 NH5       0.106100
     26 O26        -16.2970   -57.3780     5.1980 os         1 NH5      -0.330100
     27 C27        -15.7580   -56.8530     6.4140 c6         1 NH5       0.077600
     28 C28        -16.2020   -57.6410     7.6320 c          1 NH5       0.540000
     29 O29        -15.4850   -57.8060     8.6100 o          1 NH5      -0.531000
     30 N30        -17.4660   -58.1180     7.5460 ns         1 NH5      -0.145000
     31 O31        -20.2950   -58.5580     7.5760 oh         1 NH5      -0.543100
     32 C32        -15.0330   -56.9820    -1.3680 c6         1 NH5       0.111700
     33 C33        -14.7650   -56.5300    -2.8090 c6         1 NH5      -0.090900
     34 C34        -13.2920   -56.7150    -3.1790 c6         1 NH5      -0.073400
     35 C35        -12.3750   -55.9940    -2.1910 c6         1 NH5      -0.078400
     36 C36        -12.6450   -56.4520    -0.7570 c6         1 NH5      -0.073400
     37 C37        -14.1160   -56.2640    -0.3740 c6         1 NH5      -0.090900
     38 CL38       -15.0280   -63.5820     4.4140 cl         1 NH5      -0.182000
     39 CL39       -16.1890   -61.1730     6.1830 cl         1 NH5      -0.180000
     40 H1         -19.5670   -60.7740     2.7470 ha         1 NH5       0.123000
     41 H2         -18.4820   -60.1780     4.8720 ha         1 NH5       0.139000
     42 H5         -16.6600   -63.8680     2.1520 ha         1 NH5       0.131000
     43 H7         -19.3700   -63.7050     1.0870 hc         1 NH5       0.057700
     44 H7A        -19.6560   -62.0040     0.7800 hc         1 NH5       0.057700
     45 H8         -17.2800   -63.7160    -0.1070 h1         1 NH5       0.054200
     46 H8A        -18.5060   -62.9720    -1.1170 h1         1 NH5       0.054200
     47 HN9        -16.3470   -61.6430     0.3330 hn         1 NH5       0.410000
     48 H10        -18.4260   -60.4790    -1.3600 h1         1 NH5       0.046200
     49 H10A       -18.2460   -60.1170     0.3500 h1         1 NH5       0.046200
     50 H11        -15.8990   -59.3130    -0.1020 hc         1 NH5       0.066200
     51 H11A       -16.1670   -59.5710    -1.8140 hc         1 NH5       0.066200
     52 H15        -16.2980   -54.8090    -1.2680 h1         1 NH5       0.056200
     53 H15A       -17.8070   -55.4800    -1.8710 h1         1 NH5       0.056200
     54 H16        -18.2280   -54.1660     0.1010 h1         1 NH5       0.053700
     55 H16A       -18.6030   -55.8550     0.4110 h1         1 NH5       0.053700
     56 HN17       -16.0670   -55.7090     1.1970 hn         1 NH5       0.411000
     57 H18        -16.8230   -55.2490     3.4730 h1         1 NH5       0.054200
     58 H18A       -18.4210   -55.0440     2.7730 h1         1 NH5       0.054200
     59 H19        -18.2970   -57.4140     1.8920 hc         1 NH5       0.058200
     60 H19A       -16.7150   -57.5750     2.6420 hc         1 NH5       0.058200
     61 H21        -20.3000   -57.7250     3.1400 ha         1 NH5       0.128000
     62 H22        -21.4290   -58.3170     5.2680 ha         1 NH5       0.138000
     63 H27        -14.6770   -56.9100     6.3300 h1         1 NH5       0.086700
     64 H27A       -16.0600   -55.8060     6.5390 h1         1 NH5       0.086700
     65 HN30       -17.7940   -58.6980     8.3070 hn         1 NH5       0.167000
     66 HO31       -19.9390   -58.0930     8.3450 ho         1 NH5       0.465000
     67 H32        -14.7830   -58.0380    -1.3130 h1         1 NH5       0.058700
     68 H33        -15.4070   -57.1000    -3.4850 hc         1 NH5       0.049950
     69 H33A       -15.0340   -55.4760    -2.9210 hc         1 NH5       0.049950
     70 H34        -13.0520   -57.7850    -3.1780 hc         1 NH5       0.043700
     71 H34A       -13.1180   -56.3540    -4.1960 hc         1 NH5       0.043700
     72 H35        -11.3280   -56.1690    -2.4510 hc         1 NH5       0.043700
     73 H35A       -12.5450   -54.9140    -2.2630 hc         1 NH5       0.043700
     74 H36        -12.3820   -57.5120    -0.6630 hc         1 NH5       0.043700
     75 H36A       -12.0120   -55.9060    -0.0550 hc         1 NH5       0.043700
     76 H37        -14.3460   -55.1950    -0.3530 hc         1 NH5       0.049950
     77 H37A       -14.2930   -56.6590     0.6290 hc         1 NH5       0.049950
@<TRIPOS>BOND
     1     1     2 ar  
     2     1     6 ar  
     3     1    40 1   
     4     2     3 ar  
     5     2    41 1   
     6     3     4 ar  
     7     3    39 1   
     8     4     5 ar  
     9     4    38 1   
    10     5     6 ar  
    11     5    42 1   
    12     6     7 1   
    13     7     8 1   
    14     7    43 1   
    15     7    44 1   
    16     8     9 1   
    17     8    45 1   
    18     8    46 1   
    19     9    10 1   
    20     9    47 1   
    21    10    11 1   
    22    10    48 1   
    23    10    49 1   
    24    11    12 1   
    25    11    50 1   
    26    11    51 1   
    27    12    13 2   
    28    12    14 1   
    29    14    15 1   
    30    14    32 1   
    31    15    16 1   
    32    15    52 1   
    33    15    53 1   
    34    16    17 1   
    35    16    54 1   
    36    16    55 1   
    37    17    18 1   
    38    17    56 1   
    39    18    19 1   
    40    18    57 1   
    41    18    58 1   
    42    19    20 1   
    43    19    59 1   
    44    19    60 1   
    45    20    21 ar  
    46    20    25 ar  
    47    21    22 ar  
    48    21    61 1   
    49    22    23 ar  
    50    22    62 1   
    51    23    24 ar  
    52    23    31 1   
    53    24    25 ar  
    54    24    30 1   
    55    25    26 1   
    56    26    27 1   
    57    27    28 1   
    58    27    63 1   
    59    27    64 1   
    60    28    29 2   
    61    28    30 1   
    62    30    65 1   
    63    31    66 1   
    64    32    33 1   
    65    32    37 1   
    66    32    67 1   
    67    33    34 1   
    68    33    68 1   
    69    33    69 1   
    70    34    35 1   
    71    34    70 1   
    72    34    71 1   
    73    35    36 1   
    74    35    72 1   
    75    35    73 1   
    76    36    37 1   
    77    36    74 1   
    78    36    75 1   
    79    37    76 1   
    80    37    77 1   
@<TRIPOS>SUBSTRUCTURE
     1 NH5         1 TEMP              0 ****  ****    0 ROOT
