@<TRIPOS>MOLECULE
NH5
   77    80     1     0     0
SMALL
No Charge or Current Charge


@<TRIPOS>ATOM
      1 C1         -18.7580   -61.3920     2.9700 ca         1 NH5      -0.101000
      2 C2         -18.1530   -61.0030     4.1780 ca         1 NH5      -0.090000
      3 C3         -17.0110   -61.6730     4.6450 ca         1 NH5       0.122000
      4 C4         -16.4800   -62.7490     3.9050 ca         1 NH5       0.125000
      5 C5         -17.0920   -63.1430     2.7020 ca         1 NH5      -0.105000
      6 C6         -18.2300   -62.4640     2.2220 ca         1 NH5      -0.072300
      7 C7         -18.9010   -62.8860     0.9140 c3         1 NH5      -0.075100
      8 C8         -17.9380   -63.0080    -0.2930 c3         1 NH5       0.167800
      9 N9         -17.0870   -61.8070    -0.4440 n7         1 NH5      -0.872400
     10 C10        -17.7760   -60.5530    -0.8050 c3         1 NH5       0.170800
     11 C11        -16.7360   -59.4340    -0.9630 c3         1 NH5      -0.155400
     12 C12        -17.3330   -58.0480    -1.2530 c          1 NH5       0.594100
     13 O13        -18.5170   -57.9330    -1.5470 o          1 NH5      -0.617100
     14 N14        -16.5090   -56.9000    -1.0980 n          1 NH5      -0.418800
     15 C15        -17.1660   -55.5580    -1.1920 c3         1 NH5       0.086000
     16 C16        -17.9190   -55.1570     0.1000 c3         1 NH5       0.136800
     17 N17        -17.0090   -55.1790     1.2680 n7         1 NH5      -0.861400
     18 C18        -17.6190   -55.4890     2.5770 c3         1 NH5       0.159800
     19 C19        -17.9000   -57.0040     2.7140 c3         1 NH5      -0.066100
     20 C20        -18.4570   -57.3580     4.0890 ca         1 NH5      -0.084300
     21 C21        -19.8410   -57.5660     4.2500 ca         1 NH5      -0.087000
     22 C22        -20.3710   -57.8850     5.5120 ca         1 NH5      -0.130000
     23 C23        -19.5290   -58.0040     6.6280 ca         1 NH5       0.112100
     24 C24        -18.1410   -57.8050     6.4820 ca         1 NH5      -0.150000
     25 C25        -17.6100   -57.4690     5.2130 ca         1 NH5       0.106100
     26 O26        -16.2450   -57.2740     5.0710 os         1 NH5      -0.330100
     27 C27        -15.4930   -56.8940     6.2540 c6         1 NH5       0.077600
     28 C28        -15.8690   -57.7650     7.4640 c          1 NH5       0.540000
     29 O29        -15.0530   -58.2640     8.2310 o          1 NH5      -0.531000
     30 N30        -17.2260   -57.9940     7.5520 ns         1 NH5      -0.145000
     31 O31        -20.0780   -58.3090     7.8400 oh         1 NH5      -0.543100
     32 C32        -15.0220   -56.9720    -1.2760 c6         1 NH5       0.111700
     33 C33        -14.6110   -56.5890    -2.7260 c6         1 NH5      -0.090900
     34 C34        -13.0830   -56.7280    -2.9340 c6         1 NH5      -0.073400
     35 C35        -12.2990   -55.8830    -1.9010 c6         1 NH5      -0.078400
     36 C36        -12.7040   -56.2540    -0.4530 c6         1 NH5      -0.073400
     37 C37        -14.2330   -56.1140    -0.2460 c6         1 NH5      -0.090900
     38 Cl38       -15.0520   -63.6220     4.4630 cl         1 NH5      -0.182000
     39 Cl39       -16.2740   -61.1550     6.1610 cl         1 NH5      -0.180000
     40 H1         -19.6400   -60.8610     2.6210 ha         1 NH5       0.123000
     41 H2         -18.5700   -60.1840     4.7550 ha         1 NH5       0.139000
     42 H5         -16.6770   -63.9800     2.1460 ha         1 NH5       0.131000
     43 H7         -19.3960   -63.8550     1.0560 hc         1 NH5       0.057700
     44 H7A        -19.7020   -62.1850     0.6510 hc         1 NH5       0.057700
     45 H8         -17.3030   -63.8920    -0.1420 h1         1 NH5       0.054200
     46 H8A        -18.5240   -63.1890    -1.2050 h1         1 NH5       0.054200
     47 HN9        -16.6050   -61.6580     0.4500 hn         1 NH5       0.410000
     48 H10        -18.3300   -60.6710    -1.7470 h1         1 NH5       0.046200
     49 H10A       -18.4920   -60.2630    -0.0230 h1         1 NH5       0.046200
     50 H11        -16.0920   -59.3510    -0.0800 hc         1 NH5       0.066200
     51 H11A       -16.0210   -59.6680    -1.7590 hc         1 NH5       0.066200
     52 H15        -16.4190   -54.7850    -1.4090 h1         1 NH5       0.056200
     53 H15A       -17.8700   -55.5520    -2.0340 h1         1 NH5       0.056200
     54 H16        -18.3650   -54.1610    -0.0260 h1         1 NH5       0.053700
     55 H16A       -18.7480   -55.8650     0.2330 h1         1 NH5       0.053700
     56 HN17       -16.3010   -55.8980     1.0820 hn         1 NH5       0.411000
     57 H18        -16.9290   -55.1980     3.3810 h1         1 NH5       0.054200
     58 H18A       -18.5490   -54.9220     2.7250 h1         1 NH5       0.054200
     59 H19        -18.6010   -57.3230     1.9340 hc         1 NH5       0.058200
     60 H19A       -16.9740   -57.5620     2.5310 hc         1 NH5       0.058200
     61 H21        -20.5100   -57.4780     3.3960 ha         1 NH5       0.128000
     62 H22        -21.4410   -58.0390     5.6250 ha         1 NH5       0.138000
     63 H27        -14.4160   -56.9920     6.0640 h1         1 NH5       0.086700
     64 H27A       -15.7260   -55.8530     6.5130 h1         1 NH5       0.086700
     65 HN30       -17.5340   -58.5580     8.3330 hn         1 NH5       0.167000
     66 HO31       -19.4310   -58.0980     8.5430 ho         1 NH5       0.465000
     67 H32        -14.6820   -58.0030    -1.1200 h1         1 NH5       0.058700
     68 H33        -15.1390   -57.2340    -3.4420 hc         1 NH5       0.049950
     69 H33A       -14.9150   -55.5580    -2.9530 hc         1 NH5       0.049950
     70 H34        -12.7910   -57.7840    -2.8470 hc         1 NH5       0.043700
     71 H34A       -12.8150   -56.4150    -3.9530 hc         1 NH5       0.043700
     72 H35        -11.2190   -56.0350    -2.0370 hc         1 NH5       0.043700
     73 H35A       -12.4880   -54.8150    -2.0760 hc         1 NH5       0.043700
     74 H36        -12.3930   -57.2850    -0.2340 hc         1 NH5       0.043700
     75 H36A       -12.1710   -55.6100     0.2590 hc         1 NH5       0.043700
     76 H37        -14.5090   -55.0540    -0.3230 hc         1 NH5       0.049950
     77 H37A       -14.4860   -56.4350     0.7740 hc         1 NH5       0.049950
@<TRIPOS>BOND
     1     1     2 ar  
     2     1     6 ar  
     3     1    40 1   
     4     2     3 ar  
     5     2    41 1   
     6     3     4 ar  
     7     3    39 1   
     8     4     5 ar  
     9     4    38 1   
    10     5     6 ar  
    11     5    42 1   
    12     6     7 1   
    13     7     8 1   
    14     7    43 1   
    15     7    44 1   
    16     8     9 1   
    17     8    45 1   
    18     8    46 1   
    19     9    10 1   
    20     9    47 1   
    21    10    11 1   
    22    10    48 1   
    23    10    49 1   
    24    11    12 1   
    25    11    50 1   
    26    11    51 1   
    27    12    13 2   
    28    12    14 1   
    29    14    15 1   
    30    14    32 1   
    31    15    16 1   
    32    15    52 1   
    33    15    53 1   
    34    16    17 1   
    35    16    54 1   
    36    16    55 1   
    37    17    18 1   
    38    17    56 1   
    39    18    19 1   
    40    18    57 1   
    41    18    58 1   
    42    19    20 1   
    43    19    59 1   
    44    19    60 1   
    45    20    21 ar  
    46    20    25 ar  
    47    21    22 ar  
    48    21    61 1   
    49    22    23 ar  
    50    22    62 1   
    51    23    24 ar  
    52    23    31 1   
    53    24    25 ar  
    54    24    30 1   
    55    25    26 1   
    56    26    27 1   
    57    27    28 1   
    58    27    63 1   
    59    27    64 1   
    60    28    29 2   
    61    28    30 1   
    62    30    65 1   
    63    31    66 1   
    64    32    33 1   
    65    32    37 1   
    66    32    67 1   
    67    33    34 1   
    68    33    68 1   
    69    33    69 1   
    70    34    35 1   
    71    34    70 1   
    72    34    71 1   
    73    35    36 1   
    74    35    72 1   
    75    35    73 1   
    76    36    37 1   
    77    36    74 1   
    78    36    75 1   
    79    37    76 1   
    80    37    77 1   
@<TRIPOS>SUBSTRUCTURE
     1 NH5         1 TEMP              0 ****  ****    0 ROOT
