@<TRIPOS>MOLECULE
NH6
   61    64     1     0     0
SMALL
bcc


@<TRIPOS>ATOM
      1 CBC         -1.7350    -3.1160     0.7300 ca         1 NH6      -0.110000
      2 CBD         -0.5600    -3.6620     1.2260 ca         1 NH6      -0.127500
      3 CBE          0.0310    -3.0830     2.3370 ca         1 NH6       0.030400
      4 CL           1.5060    -3.7480     2.9610 cl         1 NH6      -0.106400
      5 CBF         -0.5460    -1.9930     2.9690 ca         1 NH6      -0.127500
      6 CBG         -1.7210    -1.4650     2.4570 ca         1 NH6      -0.110000
      7 CAW         -2.3180    -1.9990     1.3190 ca         1 NH6      -0.112300
      8 CAV         -3.5680    -1.3820     0.7440 c3         1 NH6       0.277100
      9 NAU         -3.3480    -0.2330    -0.1340 n3         1 NH6      -0.775500
     10 CAX         -2.7810    -0.3830    -1.4790 c5         1 NH6       0.225500
     11 CAY         -3.4120    -1.4980    -2.3210 c5         1 NH6      -0.091900
     12 CAZ         -2.3540    -1.7450    -3.3890 c5         1 NH6      -0.081400
     13 CBA         -1.0520    -1.7400    -2.5860 c5         1 NH6      -0.081400
     14 CBB         -1.2470    -0.6190    -1.5560 c5         1 NH6      -0.091900
     15 SAR         -3.5110     1.3020     0.4290 sy         1 NH6       1.317200
     16 OAS         -4.3530     2.0650    -0.4780 o          1 NH6      -0.603800
     17 OAT         -3.8780     1.2280     1.8350 o          1 NH6      -0.603800
     18 CAO         -1.8780     2.0050     0.3070 ca         1 NH6      -0.233500
     19 CAP         -0.9560     1.7540     1.3150 ca         1 NH6      -0.054500
     20 CAQ          0.3490     2.1800     1.1600 ca         1 NH6      -0.061000
     21 CAN         -1.5320     2.7290    -0.8230 ca         1 NH6      -0.054500
     22 CAM         -0.2200     3.1500    -0.9850 ca         1 NH6      -0.061000
     23 CAL          0.7090     2.8520    -0.0030 ca         1 NH6      -0.257500
     24 SAI          2.4290     3.2270    -0.2540 sy         1 NH6       1.287200
     25 OAJ          2.5420     4.0000    -1.4780 o          1 NH6      -0.595800
     26 OAK          2.9770     3.7280     0.9920 o          1 NH6      -0.595800
     27 NAH          3.1330     1.7660    -0.5270 n7         1 NH6      -0.810100
     28 CAA          2.6740     0.9740    -1.6770 c3         1 NH6       0.252100
     29 CAB          3.1500    -0.4420    -1.5160 ca         1 NH6      -0.110300
     30 CAC          4.3190    -0.8720    -2.1360 ca         1 NH6      -0.112500
     31 CAD          4.7690    -2.1740    -1.9630 ca         1 NH6      -0.127500
     32 CAE          4.0550    -3.0560    -1.1640 ca         1 NH6      -0.116000
     33 CAF          2.8900    -2.6330    -0.5380 ca         1 NH6      -0.127500
     34 CAG          2.4400    -1.3320    -0.7150 ca         1 NH6      -0.112500
     35 H1          -2.1980    -3.5810    -0.1320 ha         1 NH6       0.145500
     36 H2          -0.1200    -4.5300     0.7540 ha         1 NH6       0.150500
     37 H3          -0.0930    -1.5640     3.8530 ha         1 NH6       0.150500
     38 H4          -2.1870    -0.6340     2.9720 ha         1 NH6       0.145500
     39 H5          -4.1170    -2.1270     0.1690 h1         1 NH6       0.074200
     40 H6          -4.2370    -1.0820     1.5460 h1         1 NH6       0.074200
     41 H7          -3.0090     0.5420    -2.0100 h1         1 NH6       0.062700
     42 H8          -3.5460    -2.4160    -1.7440 hc         1 NH6       0.051950
     43 H9          -4.3880    -1.2120    -2.7110 hc         1 NH6       0.051950
     44 H10         -2.5150    -2.6740    -3.9360 hc         1 NH6       0.048950
     45 H11         -2.3540    -0.9290    -4.1180 hc         1 NH6       0.048950
     46 H12         -0.9330    -2.7020    -2.0810 hc         1 NH6       0.048950
     47 H13         -0.1670    -1.5940    -3.2050 hc         1 NH6       0.048950
     48 H14         -0.7520     0.2930    -1.8900 hc         1 NH6       0.051950
     49 H15         -0.8270    -0.8710    -0.5830 hc         1 NH6       0.051950
     50 H16         -1.2390     1.2340     2.2180 ha         1 NH6       0.158500
     51 H17          1.0710     1.9830     1.9420 ha         1 NH6       0.158000
     52 H18         -2.2590     2.9490    -1.5920 ha         1 NH6       0.158500
     53 H19          0.0630     3.6910    -1.8770 ha         1 NH6       0.158000
     54 H20          3.2520     1.2350     0.3290 hn         1 NH6       0.433800
     55 H21          1.5810     0.9830    -1.7610 h1         1 NH6       0.058700
     56 H22          3.0740     1.4130    -2.5900 h1         1 NH6       0.058700
     57 H23          4.8770    -0.1870    -2.7620 ha         1 NH6       0.133000
     58 H24          5.6770    -2.4990    -2.4540 ha         1 NH6       0.136000
     59 H25          4.4030    -4.0720    -1.0300 ha         1 NH6       0.135000
     60 H26          2.3330    -3.3160     0.0890 ha         1 NH6       0.136000
     61 H27          1.5240    -1.0140    -0.2280 ha         1 NH6       0.133000
@<TRIPOS>BOND
     1     1     2 ar  
     2     1     7 ar  
     3     1    35 1   
     4     2     3 ar  
     5     2    36 1   
     6     3     4 1   
     7     3     5 ar  
     8     5     6 ar  
     9     5    37 1   
    10     6     7 ar  
    11     6    38 1   
    12     7     8 1   
    13     8     9 1   
    14     8    39 1   
    15     8    40 1   
    16     9    10 1   
    17     9    15 1   
    18    10    11 1   
    19    10    14 1   
    20    10    41 1   
    21    11    12 1   
    22    11    42 1   
    23    11    43 1   
    24    12    13 1   
    25    12    44 1   
    26    12    45 1   
    27    13    14 1   
    28    13    46 1   
    29    13    47 1   
    30    14    48 1   
    31    14    49 1   
    32    15    16 2   
    33    15    17 2   
    34    15    18 1   
    35    18    19 ar  
    36    18    21 ar  
    37    19    20 ar  
    38    19    50 1   
    39    20    23 ar  
    40    20    51 1   
    41    21    22 ar  
    42    21    52 1   
    43    22    23 ar  
    44    22    53 1   
    45    23    24 1   
    46    24    25 2   
    47    24    26 2   
    48    24    27 1   
    49    27    28 1   
    50    27    54 1   
    51    28    29 1   
    52    28    55 1   
    53    28    56 1   
    54    29    30 ar  
    55    29    34 ar  
    56    30    31 ar  
    57    30    57 1   
    58    31    32 ar  
    59    31    58 1   
    60    32    33 ar  
    61    32    59 1   
    62    33    34 ar  
    63    33    60 1   
    64    34    61 1   
@<TRIPOS>SUBSTRUCTURE
     1 NH6         1 TEMP              0 ****  ****    0 ROOT
