@<TRIPOS>MOLECULE
NH6
   61    64     1     0     0
SMALL
No Charge or Current Charge


@<TRIPOS>ATOM
      1 CBC         -3.9860    -3.5570     0.8530 ca         1 NH6      -0.092000
      2 CBD         -3.7000    -4.5520     1.8050 ca         1 NH6      -0.109500
      3 CBE         -3.2640    -4.1910     3.0890 ca         1 NH6       0.122000
      4 Cl          -2.9040    -5.4370     4.2770 cl         1 NH6      -0.198000
      5 CBF         -3.1160    -2.8370     3.4280 ca         1 NH6      -0.109500
      6 CBG         -3.4020    -1.8400     2.4780 ca         1 NH6      -0.092000
      7 CAW         -3.8310    -2.1940     1.1820 ca         1 NH6      -0.112300
      8 CAV         -4.1330    -1.1070     0.1520 c3         1 NH6       0.277100
      9 NAU         -2.9890    -0.2030    -0.1470 n3         1 NH6      -0.775500
     10 CAX         -1.7730    -0.6690    -0.8970 c5         1 NH6       0.225500
     11 CAY         -2.1090    -1.7690    -1.9340 c5         1 NH6      -0.091900
     12 CAZ         -0.6680    -2.1840    -2.3400 c5         1 NH6      -0.081400
     13 CBA          0.1330    -2.1530    -0.9920 c5         1 NH6      -0.081400
     14 CBB         -0.8150    -1.4540     0.0340 c5         1 NH6      -0.091900
     15 SAR         -3.3150     1.4550     0.0750 sy         1 NH6       1.175600
     16 OAS         -4.1150     1.8910    -1.0750 o          1 NH6      -0.533000
     17 OAT         -3.7790     1.5950     1.4600 o          1 NH6      -0.533000
     18 CAO         -1.6680     2.1870    -0.0040 ca         1 NH6      -0.233500
     19 CAP         -0.7880     2.0490     1.0900 ca         1 NH6      -0.036500
     20 CAQ          0.5310     2.5210     1.0000 ca         1 NH6      -0.043000
     21 CAN         -1.2270     2.8330    -1.1780 ca         1 NH6      -0.036500
     22 CAM          0.0930     3.3040    -1.2690 ca         1 NH6      -0.043000
     23 CAL          0.9830     3.1380    -0.1870 ca         1 NH6      -0.257500
     24 SAI          2.7100     3.6200    -0.3670 sy         1 NH6       1.145600
     25 OAJ          2.7930     4.7950    -1.2380 o          1 NH6      -0.525000
     26 OAK          3.4010     3.5380     0.9210 o          1 NH6      -0.525000
     27 NAH          3.3040     2.3560    -1.2790 n7         1 NH6      -0.865300
     28 CAA          2.8940     0.9940    -0.9060 c3         1 NH6       0.252100
     29 CAB          3.6110    -0.0270    -1.7740 ca         1 NH6      -0.110300
     30 CAC          3.0890    -0.3730    -3.0370 ca         1 NH6      -0.094500
     31 CAD          3.7380    -1.3290    -3.8360 ca         1 NH6      -0.109500
     32 CAE          4.9160    -1.9450    -3.3790 ca         1 NH6      -0.098000
     33 CAF          5.4430    -1.6040    -2.1220 ca         1 NH6      -0.109500
     34 CAG          4.7930    -0.6480    -1.3210 ca         1 NH6      -0.094500
     35 H1          -4.3240    -3.8480    -0.1390 ha         1 NH6       0.127500
     36 H2          -3.8160    -5.6020     1.5470 ha         1 NH6       0.132500
     37 H3          -2.7790    -2.5600     4.4240 ha         1 NH6       0.132500
     38 H4          -3.2800    -0.7930     2.7450 ha         1 NH6       0.127500
     39 H5          -4.5090    -1.5660    -0.7720 h1         1 NH6       0.074200
     40 H6          -4.9860    -0.5370     0.5460 h1         1 NH6       0.074200
     41 H7          -1.2440     0.1540    -1.3960 h1         1 NH6       0.062700
     42 H8          -2.6450    -2.6240    -1.5110 hc         1 NH6       0.051950
     43 H9          -2.6910    -1.3880    -2.7810 hc         1 NH6       0.051950
     44 H10         -0.6420    -3.1710    -2.8160 hc         1 NH6       0.048950
     45 H11         -0.2430    -1.4730    -3.0590 hc         1 NH6       0.048950
     46 H12          0.4010    -3.1610    -0.6560 hc         1 NH6       0.048950
     47 H13          1.0720    -1.6010    -1.1110 hc         1 NH6       0.048950
     48 H14         -0.2720    -0.7990     0.7230 hc         1 NH6       0.051950
     49 H15         -1.3260    -2.2060     0.6400 hc         1 NH6       0.051950
     50 H16         -1.1140     1.5440     1.9980 ha         1 NH6       0.140500
     51 H17          1.2060     2.3770     1.8420 ha         1 NH6       0.140000
     52 H18         -1.8900     2.9400    -2.0350 ha         1 NH6       0.140500
     53 H19          0.4320     3.7670    -2.1950 ha         1 NH6       0.140000
     54 H20          4.3030     2.4520    -1.1170 hn         1 NH6       0.489000
     55 H21          3.1160     0.7900     0.1510 h1         1 NH6       0.058700
     56 H22          1.8120     0.8560    -1.0430 h1         1 NH6       0.058700
     57 H23          2.1780     0.1010    -3.3970 ha         1 NH6       0.115000
     58 H24          3.3290    -1.5920    -4.8090 ha         1 NH6       0.118000
     59 H25          5.4190    -2.6850    -3.9980 ha         1 NH6       0.117000
     60 H26          6.3540    -2.0810    -1.7670 ha         1 NH6       0.118000
     61 H27          5.2070    -0.3940    -0.3470 ha         1 NH6       0.115000
@<TRIPOS>BOND
     1     1     2 ar  
     2     1     7 ar  
     3     1    35 1   
     4     2     3 ar  
     5     2    36 1   
     6     3     4 1   
     7     3     5 ar  
     8     5     6 ar  
     9     5    37 1   
    10     6     7 ar  
    11     6    38 1   
    12     7     8 1   
    13     8     9 1   
    14     8    39 1   
    15     8    40 1   
    16     9    10 1   
    17     9    15 1   
    18    10    11 1   
    19    10    14 1   
    20    10    41 1   
    21    11    12 1   
    22    11    42 1   
    23    11    43 1   
    24    12    13 1   
    25    12    44 1   
    26    12    45 1   
    27    13    14 1   
    28    13    46 1   
    29    13    47 1   
    30    14    48 1   
    31    14    49 1   
    32    15    16 2   
    33    15    17 2   
    34    15    18 1   
    35    18    19 ar  
    36    18    21 ar  
    37    19    20 ar  
    38    19    50 1   
    39    20    23 ar  
    40    20    51 1   
    41    21    22 ar  
    42    21    52 1   
    43    22    23 ar  
    44    22    53 1   
    45    23    24 1   
    46    24    25 2   
    47    24    26 2   
    48    24    27 1   
    49    27    28 1   
    50    27    54 1   
    51    28    29 1   
    52    28    55 1   
    53    28    56 1   
    54    29    30 ar  
    55    29    34 ar  
    56    30    31 ar  
    57    30    57 1   
    58    31    32 ar  
    59    31    58 1   
    60    32    33 ar  
    61    32    59 1   
    62    33    34 ar  
    63    33    60 1   
    64    34    61 1   
@<TRIPOS>SUBSTRUCTURE
     1 NH6         1 TEMP              0 ****  ****    0 ROOT
