@<TRIPOS>MOLECULE
NH7
   66    71     1     0     0
SMALL
bcc


@<TRIPOS>ATOM
      1 C2          -4.6530     1.4340     3.6350 cc         1 NH7       0.397400
      2 C7          -2.6970    -0.8140     1.5630 c3         1 NH7       0.376600
      3 C10         -1.2610    -0.5040     1.2240 cc         1 NH7      -0.012100
      4 C11         -0.1060    -1.0290     1.6820 cd         1 NH7      -0.162200
      5 C12          0.9400    -0.3520     0.9660 ca         1 NH7      -0.126800
      6 C13          2.3310    -0.4090     0.9680 ca         1 NH7      -0.054000
      7 C14          3.0200     0.4490     0.1210 ca         1 NH7      -0.169600
      8 C15          2.3320     1.3560    -0.6990 ca         1 NH7      -0.057000
      9 C16          0.9450     1.4270    -0.7370 cp         1 NH7      -0.026000
     10 C21         -3.5020    -0.9340     0.2630 ca         1 NH7      -0.122300
     11 C22         -3.8470    -2.1720    -0.2620 ca         1 NH7      -0.099500
     12 C24         -4.9160    -1.1170    -2.1230 ca         1 NH7       0.034400
     13 C31          0.2280     2.3780    -1.6060 cp         1 NH7      -0.037000
     14 C32          0.6970     3.6840    -1.7510 ca         1 NH7      -0.108000
     15 C33          0.0400     4.5860    -2.5740 ca         1 NH7      -0.131500
     16 C34         -1.0990     4.1960    -3.2670 ca         1 NH7      -0.119000
     17 C35         -1.5730     2.8980    -3.1310 ca         1 NH7      -0.131500
     18 N1          -4.5450     0.3290     2.8710 na         1 NH7      -0.165900
     19 N3          -3.5280     2.0970     3.7160 nd         1 NH7      -0.672000
     20 C4          -2.6410     1.3850     2.9680 cd         1 NH7       0.333200
     21 C5          -3.2460     0.2820     2.4300 cc         1 NH7      -0.230900
     22 C6          -5.6300    -0.5860     2.5790 c3         1 NH7       0.027600
     23 O8          -2.7310    -1.9860     2.3350 oh         1 NH7      -0.577800
     24 O9          -1.0400     0.4530     0.2880 os         1 NH7      -0.150200
     25 C17          0.2930     0.5480     0.1220 ca         1 NH7       0.086100
     26 C23         -4.5520    -2.2710    -1.4540 ca         1 NH7      -0.126000
     27 C25         -4.5870     0.1320    -1.6180 ca         1 NH7      -0.126000
     28 C26         -3.8830     0.2130    -0.4280 ca         1 NH7      -0.099500
     29 CL27        -5.8000    -1.2310    -3.6080 cl         1 NH7      -0.105400
     30 C36         -0.9170     1.9950    -2.3080 ca         1 NH7      -0.108000
     31 C41          4.5150     0.4760     0.0690 c          1 NH7       0.701700
     32 O42          5.1280     1.5010    -0.1710 o          1 NH7      -0.562100
     33 N43          5.1060    -0.7160     0.2990 ns         1 NH7      -0.462300
     34 N44          6.4760    -0.8400     0.3230 n3         1 NH7      -0.444600
     35 C45          6.9620    -1.6870    -0.7560 c6         1 NH7       0.109800
     36 C46          8.4780    -1.7360    -0.7030 c6         1 NH7       0.130900
     37 O47          8.9370    -2.1930     0.5490 os         1 NH7      -0.403600
     38 C48          8.4700    -1.3630     1.5890 c6         1 NH7       0.130900
     39 C49          6.9540    -1.3060     1.6170 c6         1 NH7       0.109800
     40 H2          -5.5820     1.7010     4.1170 h5         1 NH7       0.054100
     41 H11          0.0090    -1.7910     2.4360 ha         1 NH7       0.171000
     42 H13          2.8450    -1.0880     1.6370 ha         1 NH7       0.139000
     43 H15          2.9040     2.0070    -1.3460 ha         1 NH7       0.160000
     44 H22         -3.5900    -3.0940     0.2420 ha         1 NH7       0.145500
     45 H32          1.5750     4.0050    -1.2030 ha         1 NH7       0.137500
     46 H33          0.4140     5.5970    -2.6690 ha         1 NH7       0.132000
     47 H34         -1.6130     4.8990    -3.9090 ha         1 NH7       0.131000
     48 H35         -2.4560     2.5840    -3.6730 ha         1 NH7       0.132000
     49 H4          -1.6140     1.6970     2.8530 h4         1 NH7       0.045100
     50 H6          -6.0000    -0.4450     1.5650 h1         1 NH7       0.057700
     51 H6A         -5.3050    -1.6150     2.7000 h1         1 NH7       0.057700
     52 H6B         -6.4410    -0.3930     3.2760 h1         1 NH7       0.057700
     53 HO8         -2.2840    -2.7010     1.8670 ho         1 NH7       0.415000
     54 H23         -4.8140    -3.2440    -1.8470 ha         1 NH7       0.150500
     55 H25         -4.8780     1.0330    -2.1390 ha         1 NH7       0.150500
     56 H26         -3.6390     1.1950    -0.0430 ha         1 NH7       0.145500
     57 H36         -1.2920     0.9830    -2.2320 ha         1 NH7       0.137500
     58 HN43         4.5450    -1.5590     0.3530 hn         1 NH7       0.302500
     59 H45          6.5560    -2.7080    -0.6850 h1         1 NH7       0.048950
     60 H45A         6.6480    -1.2670    -1.7130 h1         1 NH7       0.048950
     61 H46          8.8520    -2.4240    -1.4620 h1         1 NH7       0.057950
     62 H46A         8.8830    -0.7380    -0.9220 h1         1 NH7       0.057950
     63 H48          8.8440    -1.7690     2.5290 h1         1 NH7       0.057950
     64 H48A         8.8670    -0.3440     1.4770 h1         1 NH7       0.057950
     65 H49          6.6340    -0.6050     2.3900 h1         1 NH7       0.048950
     66 H49A         6.5450    -2.2970     1.8680 h1         1 NH7       0.048950
@<TRIPOS>BOND
     1     1    18 1   
     2     1    19 2   
     3     1    40 1   
     4     2     3 1   
     5     2    10 1   
     6     2    21 1   
     7     2    23 1   
     8     3     4 2   
     9     3    24 1   
    10     4     5 1   
    11     4    41 1   
    12     5     6 ar  
    13     5    25 ar  
    14     6     7 ar  
    15     6    42 1   
    16     7     8 ar  
    17     7    31 1   
    18     8     9 ar  
    19     8    43 1   
    20     9    13 1   
    21     9    25 ar  
    22    10    11 ar  
    23    10    28 ar  
    24    11    26 ar  
    25    11    44 1   
    26    12    26 ar  
    27    12    27 ar  
    28    12    29 1   
    29    13    14 ar  
    30    13    30 ar  
    31    14    15 ar  
    32    14    45 1   
    33    15    16 ar  
    34    15    46 1   
    35    16    17 ar  
    36    16    47 1   
    37    17    30 ar  
    38    17    48 1   
    39    18    21 1   
    40    18    22 1   
    41    19    20 1   
    42    20    21 2   
    43    20    49 1   
    44    22    50 1   
    45    22    51 1   
    46    22    52 1   
    47    23    53 1   
    48    24    25 1   
    49    26    54 1   
    50    27    28 ar  
    51    27    55 1   
    52    28    56 1   
    53    30    57 1   
    54    31    32 2   
    55    31    33 1   
    56    33    34 1   
    57    33    58 1   
    58    34    35 1   
    59    34    39 1   
    60    35    36 1   
    61    35    59 1   
    62    35    60 1   
    63    36    37 1   
    64    36    61 1   
    65    36    62 1   
    66    37    38 1   
    67    38    39 1   
    68    38    63 1   
    69    38    64 1   
    70    39    65 1   
    71    39    66 1   
@<TRIPOS>SUBSTRUCTURE
     1 NH7         1 TEMP              0 ****  ****    0 ROOT
