@<TRIPOS>MOLECULE
NH7
   66    71     1     0     0
SMALL
No Charge or Current Charge


@<TRIPOS>ATOM
      1 C2          -4.4830     1.0500     3.9830 cc         1 NH7       0.397400
      2 C7          -2.7130    -0.9230     1.3970 c3         1 NH7       0.399800
      3 C10         -1.2960    -0.5790     0.9670 cc         1 NH7      -0.012100
      4 C11         -0.0730    -1.1410     1.2930 cd         1 NH7      -0.212200
      5 C12          0.9390    -0.4230     0.5880 ca         1 NH7      -0.126800
      6 C13          2.3300    -0.5550     0.5530 ca         1 NH7      -0.036000
      7 C14          3.0580     0.3510    -0.2650 ca         1 NH7      -0.169600
      8 C15          2.3450     1.3400    -1.0060 ca         1 NH7      -0.039000
      9 C16          0.9270     1.4530    -0.9590 cp         1 NH7      -0.026000
     10 C21         -3.6490    -0.8870     0.1650 ca         1 NH7      -0.122300
     11 C22         -4.0410    -2.0630    -0.5240 ca         1 NH7      -0.081500
     12 C24         -5.3410    -0.7430    -2.1040 ca         1 NH7       0.126000
     13 C31          0.1950     2.4950    -1.7480 cp         1 NH7      -0.037000
     14 C32          0.7120     3.8100    -1.8670 ca         1 NH7      -0.090000
     15 C33          0.0300     4.7930    -2.6050 ca         1 NH7      -0.113500
     16 C34         -1.1810     4.4810    -3.2440 ca         1 NH7      -0.101000
     17 C35         -1.7090     3.1840    -3.1440 ca         1 NH7      -0.113500
     18 N1          -4.4610     0.0200     3.0650 na         1 NH7      -0.144500
     19 N3          -3.3260     1.6950     4.0020 nd         1 NH7      -0.672000
     20 C4          -2.5320     1.0590     3.0690 cd         1 NH7       0.267900
     21 C5          -3.2050     0.0200     2.4750 cc         1 NH7      -0.216300
     22 C6          -5.5810    -0.8930     2.7790 c3         1 NH7       0.056900
     23 O8          -2.7010    -2.2320     1.9680 oh         1 NH7      -0.640000
     24 O9          -1.0980     0.4880     0.0860 os         1 NH7      -0.150200
     25 C17          0.2650     0.5270    -0.1250 ca         1 NH7       0.086100
     26 C23         -4.8830    -1.9870    -1.6480 ca         1 NH7      -0.108000
     27 C25         -4.9580     0.4300    -1.4400 ca         1 NH7      -0.108000
     28 C26         -4.1190     0.3590    -0.3150 ca         1 NH7      -0.081500
     29 Cl27        -6.3900    -0.6530    -3.5130 cl         1 NH7      -0.197000
     30 C36         -1.0270     2.2010    -2.4060 ca         1 NH7      -0.090000
     31 C41          4.5690     0.2930    -0.3730 c          1 NH7       0.634700
     32 O42          5.1960     1.0760    -1.0780 o          1 NH7      -0.562100
     33 N43          5.2070    -0.6970     0.3710 ns         1 NH7      -0.395300
     34 N44          6.6230    -0.8850     0.3800 n3         1 NH7      -0.444600
     35 C45          7.0320    -2.2000    -0.1920 c6         1 NH7       0.109800
     36 C46          8.5790    -2.3530    -0.1850 c6         1 NH7       0.154100
     37 O47          9.0990    -2.1360     1.1500 os         1 NH7      -0.450000
     38 C48          8.7710    -0.8280     1.6790 c6         1 NH7       0.154100
     39 C49          7.2280    -0.6360     1.7200 c6         1 NH7       0.109800
     40 H2          -5.3550     1.2720     4.5880 h5         1 NH7       0.054100
     41 H11          0.0830    -1.9750     1.9740 ha         1 NH7       0.221000
     42 H13          2.8090    -1.3310     1.1430 ha         1 NH7       0.121000
     43 H15          2.8970     2.0280    -1.6420 ha         1 NH7       0.142000
     44 H22         -3.7020    -3.0440    -0.2020 ha         1 NH7       0.127500
     45 H32          1.6430     4.0740    -1.3700 ha         1 NH7       0.119500
     46 H33          0.4410     5.7980    -2.6810 ha         1 NH7       0.114000
     47 H34         -1.7080     5.2420    -3.8150 ha         1 NH7       0.113000
     48 H35         -2.6440     2.9370    -3.6420 ha         1 NH7       0.114000
     49 H4          -1.5170     1.3900     2.8770 h4         1 NH7       0.045100
     50 H6          -5.9640    -0.7030     1.7690 h1         1 NH7       0.057700
     51 H6A         -5.2410    -1.9330     2.8490 h1         1 NH7       0.057700
     52 H6B         -6.3890    -0.7330     3.5030 h1         1 NH7       0.057700
     53 HO8         -2.2130    -2.7910     1.3310 ho         1 NH7       0.454000
     54 H23         -5.1790    -2.8950    -2.1680 ha         1 NH7       0.132500
     55 H25         -5.3100     1.3950    -1.7970 ha         1 NH7       0.132500
     56 H26         -3.8280     1.2830     0.1810 ha         1 NH7       0.127500
     57 H36         -1.4440     1.1990    -2.3550 ha         1 NH7       0.119500
     58 HN43         4.6190    -1.3060     0.9300 hn         1 NH7       0.302500
     59 H45          6.5920    -3.0230     0.3900 h1         1 NH7       0.048950
     60 H45A         6.6670    -2.2970    -1.2240 h1         1 NH7       0.048950
     61 H46          8.8580    -3.3610    -0.5220 h1         1 NH7       0.057950
     62 H46A         9.0320    -1.6250    -0.8740 h1         1 NH7       0.057950
     63 H48          9.1870    -0.7320     2.6910 h1         1 NH7       0.057950
     64 H48A         9.2290    -0.0540     1.0450 h1         1 NH7       0.057950
     65 H49          7.0030     0.3870     2.0560 h1         1 NH7       0.048950
     66 H49A         6.8050    -1.3250     2.4650 h1         1 NH7       0.048950
@<TRIPOS>BOND
     1     1    18 1   
     2     1    19 2   
     3     1    40 1   
     4     2     3 1   
     5     2    10 1   
     6     2    21 1   
     7     2    23 1   
     8     3     4 2   
     9     3    24 1   
    10     4     5 1   
    11     4    41 1   
    12     5     6 ar  
    13     5    25 ar  
    14     6     7 ar  
    15     6    42 1   
    16     7     8 ar  
    17     7    31 1   
    18     8     9 ar  
    19     8    43 1   
    20     9    13 1   
    21     9    25 ar  
    22    10    11 ar  
    23    10    28 ar  
    24    11    26 ar  
    25    11    44 1   
    26    12    26 ar  
    27    12    27 ar  
    28    12    29 1   
    29    13    14 ar  
    30    13    30 ar  
    31    14    15 ar  
    32    14    45 1   
    33    15    16 ar  
    34    15    46 1   
    35    16    17 ar  
    36    16    47 1   
    37    17    30 ar  
    38    17    48 1   
    39    18    21 1   
    40    18    22 1   
    41    19    20 1   
    42    20    21 2   
    43    20    49 1   
    44    22    50 1   
    45    22    51 1   
    46    22    52 1   
    47    23    53 1   
    48    24    25 1   
    49    26    54 1   
    50    27    28 ar  
    51    27    55 1   
    52    28    56 1   
    53    30    57 1   
    54    31    32 2   
    55    31    33 1   
    56    33    34 1   
    57    33    58 1   
    58    34    35 1   
    59    34    39 1   
    60    35    36 1   
    61    35    59 1   
    62    35    60 1   
    63    36    37 1   
    64    36    61 1   
    65    36    62 1   
    66    37    38 1   
    67    38    39 1   
    68    38    63 1   
    69    38    64 1   
    70    39    65 1   
    71    39    66 1   
@<TRIPOS>SUBSTRUCTURE
     1 NH7         1 TEMP              0 ****  ****    0 ROOT
