@<TRIPOS>MOLECULE
NH8
   53    57     1     0     0
SMALL
No Charge or Current Charge


@<TRIPOS>ATOM
      1 C2          -1.5530     3.2060     2.6770 cc         1 NH8       0.405400
      2 C7          -2.3200    -0.1400     1.2830 c3         1 NH8       0.398800
      3 C10         -0.9600    -0.7710     1.0250 cc         1 NH8      -0.008100
      4 C11         -0.4340    -2.0040     1.3760 cd         1 NH8      -0.211200
      5 C12          0.9070    -2.0590     0.8920 ca         1 NH8      -0.132800
      6 C13          1.8940    -3.0450     0.9740 ca         1 NH8       0.017000
      7 C14          3.1540    -2.7600     0.3880 ca         1 NH8      -0.198200
      8 C15          3.3650    -1.5020    -0.2520 ca         1 NH8      -0.031000
      9 C16          2.3420    -0.5150    -0.3270 cp         1 NH8      -0.031000
     10 C21         -3.2860    -0.3070     0.0890 ca         1 NH8      -0.101300
     11 C22         -2.8420    -0.7260    -1.1900 ca         1 NH8      -0.094500
     12 C24         -5.1110    -0.5680    -2.0740 ca         1 NH8      -0.002000
     13 C27         -6.0340    -0.7000    -3.1680 cg         1 NH8       0.317000
     14 C31          2.5730     0.8020    -0.9980 cp         1 NH8      -0.045000
     15 C32          1.5900     1.3840    -1.8370 ca         1 NH8      -0.063000
     16 C33          1.8140     2.6200    -2.4660 ca         1 NH8      -0.110000
     17 C34          3.0270     3.3010    -2.2710 ca         1 NH8      -0.059000
     18 C35          4.0210     2.7430    -1.4460 ca         1 NH8      -0.013000
     19 N1          -1.4610     1.8310     2.7350 na         1 NH8      -0.143500
     20 N3          -2.2520     3.5910     1.6190 nd         1 NH8      -0.672000
     21 C4          -2.6240     2.4270     0.9780 cd         1 NH8       0.271900
     22 C5          -2.1630     1.3220     1.6510 cc         1 NH8      -0.220300
     23 C6          -0.7310     1.0690     3.7640 c3         1 NH8       0.057900
     24 O8          -2.9180    -0.8060     2.3970 oh         1 NH8      -0.639000
     25 O9           0.0060    -0.0290     0.3380 os         1 NH8      -0.143200
     26 C17          1.1100    -0.8560     0.2750 ca         1 NH8       0.098100
     27 C23         -3.7470    -0.8550    -2.2580 ca         1 NH8      -0.074500
     28 C25         -5.5640    -0.1470    -0.8110 ca         1 NH8      -0.074500
     29 C26         -4.6610    -0.0170     0.2570 ca         1 NH8      -0.094500
     30 N28         -6.7790    -0.8150    -4.0600 n1         1 NH8      -0.437000
     31 C36          3.7930     1.5020    -0.8180 ca         1 NH8      -0.058000
     32 C37          5.2630     3.4370    -1.2440 cg         1 NH8       0.318000
     33 N38          6.2760     3.9920    -1.0750 n1         1 NH8      -0.440000
     34 N41          4.2500    -3.7770     0.4430 no         1 NH8       0.697200
     35 O42          4.0190    -4.8570     1.0020 o          1 NH8      -0.395000
     36 O43          5.3390    -3.4910    -0.0720 o          1 NH8      -0.395000
     37 H2          -1.0930     3.8520     3.4150 h5         1 NH8       0.056100
     38 H11         -0.9510    -2.7810     1.9320 ha         1 NH8       0.223000
     39 H13          1.6870    -3.9890     1.4770 ha         1 NH8       0.161000
     40 H15          4.3270    -1.2840    -0.7120 ha         1 NH8       0.161000
     41 H22         -1.7960    -0.9540    -1.3760 ha         1 NH8       0.131000
     42 H32          0.6500     0.8660    -2.0130 ha         1 NH8       0.120000
     43 H33          1.0470     3.0490    -3.1080 ha         1 NH8       0.126000
     44 H34          3.1920     4.2580    -2.7620 ha         1 NH8       0.132000
     45 H4          -3.2040     2.4530     0.0630 h4         1 NH8       0.042100
     46 H6          -1.4260     0.4100     4.2990 h1         1 NH8       0.057367
     47 H6A          0.0530     0.4650     3.2920 h1         1 NH8       0.057367
     48 H6B         -0.2680     1.7570     4.4810 h1         1 NH8       0.057367
     49 HO8         -3.1870    -1.6850     2.0620 ho         1 NH8       0.457000
     50 H23         -3.3830    -1.1800    -3.2310 ha         1 NH8       0.131000
     51 H25         -6.6170     0.0830    -0.6550 ha         1 NH8       0.131000
     52 H26         -5.0330     0.3190     1.2240 ha         1 NH8       0.131000
     53 H36          4.5610     1.0820    -0.1730 ha         1 NH8       0.130000
@<TRIPOS>BOND
     1     1    19 1   
     2     1    20 2   
     3     1    37 1   
     4     2     3 1   
     5     2    10 1   
     6     2    22 1   
     7     2    24 1   
     8     3     4 2   
     9     3    25 1   
    10     4     5 1   
    11     4    38 1   
    12     5     6 ar  
    13     5    26 ar  
    14     6     7 ar  
    15     6    39 1   
    16     7     8 ar  
    17     7    34 1   
    18     8     9 ar  
    19     8    40 1   
    20     9    14 1   
    21     9    26 ar  
    22    10    11 ar  
    23    10    29 ar  
    24    11    27 ar  
    25    11    41 1   
    26    12    13 1   
    27    12    27 ar  
    28    12    28 ar  
    29    13    30 3   
    30    14    15 ar  
    31    14    31 ar  
    32    15    16 ar  
    33    15    42 1   
    34    16    17 ar  
    35    16    43 1   
    36    17    18 ar  
    37    17    44 1   
    38    18    31 ar  
    39    18    32 1   
    40    19    22 1   
    41    19    23 1   
    42    20    21 1   
    43    21    22 2   
    44    21    45 1   
    45    23    46 1   
    46    23    47 1   
    47    23    48 1   
    48    24    49 1   
    49    25    26 1   
    50    27    50 1   
    51    28    29 ar  
    52    28    51 1   
    53    29    52 1   
    54    31    53 1   
    55    32    33 3   
    56    34    35 1   
    57    34    36 1   
@<TRIPOS>SUBSTRUCTURE
     1 NH8         1 TEMP              0 ****  ****    0 ROOT
