@<TRIPOS>MOLECULE
NH8
   53    57     1     0     0
SMALL
abcg2


@<TRIPOS>ATOM
      1 C2          -1.3790     3.1580     2.5750 cc         1 NH8       0.405400
      2 C7          -2.3120    -0.1200     1.3250 c3         1 NH8       0.398800
      3 C10         -0.9880    -0.8120     1.0880 cc         1 NH8      -0.008100
      4 C11         -0.5210    -2.0080     1.4990 cd         1 NH8      -0.211200
      5 C12          0.8170    -2.1010     0.9900 ca         1 NH8      -0.132800
      6 C13          1.8320    -3.0440     1.0820 ca         1 NH8       0.017000
      7 C14          3.0290    -2.7270     0.4640 ca         1 NH8      -0.198200
      8 C15          3.2430    -1.5290    -0.2240 ca         1 NH8      -0.031000
      9 C16          2.2380    -0.5800    -0.3270 cp         1 NH8      -0.031000
     10 C21         -3.2210    -0.2420     0.0960 ca         1 NH8      -0.101300
     11 C22         -2.7260    -0.0850    -1.1970 ca         1 NH8      -0.094500
     12 C24         -4.9220    -0.4310    -2.1010 ca         1 NH8      -0.002000
     13 C27         -5.7930    -0.5340    -3.2270 cg         1 NH8       0.317000
     14 C31          2.4470     0.7020    -1.0240 cp         1 NH8      -0.045000
     15 C32          1.5130     1.1920    -1.9370 ca         1 NH8      -0.063000
     16 C33          1.7240     2.3950    -2.5930 ca         1 NH8      -0.110000
     17 C34          2.8700     3.1330    -2.3500 ca         1 NH8      -0.059000
     18 C35          3.8080     2.6450    -1.4420 ca         1 NH8      -0.013000
     19 N1          -1.3220     1.8130     2.6410 na         1 NH8      -0.143500
     20 N3          -2.1250     3.5790     1.5860 nd         1 NH8      -0.672000
     21 C4          -2.5790     2.4500     0.9770 cd         1 NH8       0.271900
     22 C5          -2.0980     1.3370     1.6110 cc         1 NH8      -0.220300
     23 C6          -0.5830     1.0670     3.6380 c3         1 NH8       0.057900
     24 O8          -2.9120    -0.6860     2.4600 oh         1 NH8      -0.639000
     25 O9          -0.0530    -0.1330     0.3640 os         1 NH8      -0.143200
     26 C17          1.0400    -0.9100     0.2970 ca         1 NH8       0.098100
     27 C23         -3.5650    -0.1780    -2.2920 ca         1 NH8      -0.074500
     28 C25         -5.4300    -0.5800    -0.8140 ca         1 NH8      -0.074500
     29 C26         -4.5790    -0.4820     0.2750 ca         1 NH8      -0.094500
     30 N28         -6.4970    -0.6180    -4.1350 n1         1 NH8      -0.437000
     31 C36          3.6010     1.4380    -0.7790 ca         1 NH8      -0.058000
     32 C37          4.9950     3.3950    -1.1790 cg         1 NH8       0.318000
     33 N38          5.9510     4.0010    -0.9690 n1         1 NH8      -0.440000
     34 N41          4.1200    -3.6870     0.5330 no         1 NH8       0.697200
     35 O42          3.9380    -4.7100     1.1490 o          1 NH8      -0.395000
     36 O43          5.1550    -3.4160    -0.0290 o          1 NH8      -0.395000
     37 H2          -0.8560     3.7810     3.2840 h5         1 NH8       0.056100
     38 H11         -1.0330    -2.7400     2.1010 ha         1 NH8       0.223000
     39 H13          1.6860    -3.9730     1.6140 ha         1 NH8       0.161000
     40 H15          4.1970    -1.3370    -0.6950 ha         1 NH8       0.161000
     41 H22         -1.6820     0.1260    -1.3730 ha         1 NH8       0.131000
     42 H32          0.6230     0.6210    -2.1640 ha         1 NH8       0.120000
     43 H33          0.9910     2.7570    -3.3000 ha         1 NH8       0.126000
     44 H34          3.0380     4.0730    -2.8570 ha         1 NH8       0.132000
     45 H4          -3.2250     2.4890     0.1140 h4         1 NH8       0.042100
     46 H6          -1.2480     0.4470     4.2330 h1         1 NH8       0.057367
     47 H6A          0.1740     0.4350     3.1790 h1         1 NH8       0.057367
     48 H6B         -0.0820     1.7730     4.2940 h1         1 NH8       0.057367
     49 HO8         -3.1200    -1.6150     2.2960 ho         1 NH8       0.457000
     50 H23         -3.1680    -0.0540    -3.2900 ha         1 NH8       0.131000
     51 H25         -6.4830    -0.7680    -0.6610 ha         1 NH8       0.131000
     52 H26         -4.9960    -0.5890     1.2660 ha         1 NH8       0.131000
     53 H36          4.3330     1.0840    -0.0650 ha         1 NH8       0.130000
@<TRIPOS>BOND
     1     1    19 1   
     2     1    20 2   
     3     1    37 1   
     4     2     3 1   
     5     2    10 1   
     6     2    22 1   
     7     2    24 1   
     8     3     4 2   
     9     3    25 1   
    10     4     5 1   
    11     4    38 1   
    12     5     6 ar  
    13     5    26 ar  
    14     6     7 ar  
    15     6    39 1   
    16     7     8 ar  
    17     7    34 1   
    18     8     9 ar  
    19     8    40 1   
    20     9    14 1   
    21     9    26 ar  
    22    10    11 ar  
    23    10    29 ar  
    24    11    27 ar  
    25    11    41 1   
    26    12    13 1   
    27    12    27 ar  
    28    12    28 ar  
    29    13    30 3   
    30    14    15 ar  
    31    14    31 ar  
    32    15    16 ar  
    33    15    42 1   
    34    16    17 ar  
    35    16    43 1   
    36    17    18 ar  
    37    17    44 1   
    38    18    31 ar  
    39    18    32 1   
    40    19    22 1   
    41    19    23 1   
    42    20    21 1   
    43    21    22 2   
    44    21    45 1   
    45    23    46 1   
    46    23    47 1   
    47    23    48 1   
    48    24    49 1   
    49    25    26 1   
    50    27    50 1   
    51    28    29 ar  
    52    28    51 1   
    53    29    52 1   
    54    31    53 1   
    55    32    33 3   
    56    34    35 1   
    57    34    36 1   
@<TRIPOS>SUBSTRUCTURE
     1 NH8         1 TEMP              0 ****  ****    0 ROOT
