@<TRIPOS>MOLECULE
NHB
   41    43     1     0     0
SMALL
bcc


@<TRIPOS>ATOM
      1 C7          -0.5170    -0.8000    -4.9990 ca         1 NHB      -0.236300
      2 C8          -1.2860    -1.0470    -6.1240 ca         1 NHB      -0.084000
      3 C9          -2.5140    -0.4190    -6.2490 ca         1 NHB      -0.240300
      4 C10         -2.9160     0.4360    -5.2310 ca         1 NHB       0.411200
      5 N11         -2.1880     0.6800    -4.1540 nb         1 NHB      -0.663000
      6 C6          -1.0080     0.0750    -4.0320 ca         1 NHB       0.481800
      7 C4          -0.2620     0.3900    -2.8110 cc         1 NHB      -0.096600
      8 S5           1.2820    -0.2970    -2.4870 ss         1 NHB       0.040200
      9 C3          -0.6530     1.2380    -1.8060 cd         1 NHB      -0.142000
     10 C2           0.2900     1.3330    -0.7630 cd         1 NHB      -0.011000
     11 C1           1.3880     0.5560    -1.0020 cc         1 NHB      -0.332600
     12 S12          2.7360     0.2930     0.0740 sy         1 NHB       1.340200
     13 O13          2.8530     1.4640     0.9190 o          1 NHB      -0.599300
     14 O14          3.8480    -0.1650    -0.7360 o          1 NHB      -0.599300
     15 N15          2.3030    -0.9800     1.0540 nh         1 NHB      -0.600900
     16 C16          2.3240    -2.3130     0.4490 c3         1 NHB       0.181100
     17 C17          1.2620    -0.7050     1.9870 ca         1 NHB       0.109600
     18 C18          1.5810    -0.1120     3.2030 ca         1 NHB      -0.121500
     19 C19          0.5870     0.1340     4.1330 ca         1 NHB      -0.085500
     20 C22         -0.0560    -1.0490     1.7070 ca         1 NHB      -0.121500
     21 C21         -1.0490    -0.7970     2.6400 ca         1 NHB      -0.085500
     22 C20         -0.7390    -0.1940     3.8550 ca         1 NHB      -0.148600
     23 C23         -1.7640     0.0630     4.9100 c          1 NHB       0.686700
     24 O25         -1.4970     0.0180     6.0980 o          1 NHB      -0.567100
     25 N24         -2.9820     0.3720     4.4330 ns         1 NHB      -0.459400
     26 O26         -4.0400     0.4840     5.2780 oh         1 NHB      -0.374100
     27 H7           0.4450    -1.2850    -4.8880 ha         1 NHB       0.145000
     28 H8          -0.9270    -1.7210    -6.8890 ha         1 NHB       0.143000
     29 H9          -3.1500    -0.5840    -7.1080 ha         1 NHB       0.147000
     30 H10         -3.8710     0.9470    -5.2930 h4         1 NHB       0.023100
     31 H3          -1.5880     1.7780    -1.8270 ha         1 NHB       0.175000
     32 H2           0.1660     1.9500     0.1150 ha         1 NHB       0.171000
     33 H161         1.5700    -2.4550    -0.3290 h1         1 NHB       0.056700
     34 H162         3.3070    -2.5150     0.0340 h1         1 NHB       0.056700
     35 H163         2.1420    -3.0340     1.2420 h1         1 NHB       0.056700
     36 H18          2.6080     0.1350     3.4290 ha         1 NHB       0.152000
     37 H19          0.8460     0.5840     5.0820 ha         1 NHB       0.148500
     38 H22         -0.3180    -1.5200     0.7690 ha         1 NHB       0.152000
     39 H21         -2.0630    -1.0960     2.4070 ha         1 NHB       0.148500
     40 H24         -3.1990     0.4640     3.4520 hn         1 NHB       0.342500
     41 H26         -4.0740     1.4090     5.5560 ho         1 NHB       0.401000
@<TRIPOS>BOND
     1     1     2 ar  
     2     1     6 ar  
     3     1    27 1   
     4     2     3 ar  
     5     2    28 1   
     6     3     4 ar  
     7     3    29 1   
     8     4     5 ar  
     9     4    30 1   
    10     5     6 ar  
    11     6     7 1   
    12     7     8 1   
    13     7     9 2   
    14     8    11 1   
    15     9    10 1   
    16     9    31 1   
    17    10    11 2   
    18    10    32 1   
    19    11    12 1   
    20    12    13 2   
    21    12    14 2   
    22    12    15 1   
    23    15    16 1   
    24    15    17 1   
    25    16    33 1   
    26    16    34 1   
    27    16    35 1   
    28    17    18 ar  
    29    17    20 ar  
    30    18    19 ar  
    31    18    36 1   
    32    19    22 ar  
    33    19    37 1   
    34    20    21 ar  
    35    20    38 1   
    36    21    22 ar  
    37    21    39 1   
    38    22    23 1   
    39    23    24 2   
    40    23    25 1   
    41    25    26 1   
    42    25    40 1   
    43    26    41 1   
@<TRIPOS>SUBSTRUCTURE
     1 NHB         1 TEMP              0 ****  ****    0 ROOT
