@<TRIPOS>MOLECULE
NHB
   41    43     1     0     0
SMALL
No Charge or Current Charge


@<TRIPOS>ATOM
      1 C7          -1.4260    -0.6990    -3.9270 ca         1 NHB      -0.153000
      2 C8          -2.5370    -0.7780    -4.7830 ca         1 NHB      -0.066000
      3 C9          -3.3770     0.3400    -4.8790 ca         1 NHB      -0.157000
      4 C10         -3.0760     1.4840    -4.1230 ca         1 NHB       0.345900
      5 N11         -2.0070     1.5600    -3.2990 nb         1 NHB      -0.663000
      6 C6          -1.1860     0.4860    -3.1970 ca         1 NHB       0.416500
      7 C4          -0.0300     0.5870    -2.2960 cc         1 NHB      -0.241500
      8 S5           1.1600    -0.6810    -2.0160 ss         1 NHB       0.330000
      9 C3           0.2420     1.7170    -1.5540 cd         1 NHB      -0.124000
     10 C2           1.4030     1.5770    -0.7470 cd         1 NHB       0.007000
     11 C1           2.0050     0.3490    -0.8800 cc         1 NHB      -0.477500
     12 S12          3.4340    -0.2430    -0.0140 sy         1 NHB       1.198600
     13 O13          4.0620     0.8880     0.6780 o          1 NHB      -0.528500
     14 O14          4.1860    -1.1130    -0.9240 o          1 NHB      -0.528500
     15 N15          2.7130    -1.2380     1.1670 nh         1 NHB      -0.739300
     16 C16          3.2220    -2.6140     1.3170 c3         1 NHB       0.181100
     17 C17          1.4620    -0.8490     1.6860 ca         1 NHB       0.248000
     18 C18          1.3100     0.3660     2.3770 ca         1 NHB      -0.103500
     19 C19          0.0560     0.7530     2.8810 ca         1 NHB      -0.067500
     20 C22          0.3390    -1.6810     1.5280 ca         1 NHB      -0.103500
     21 C21         -0.9190    -1.3000     2.0290 ca         1 NHB      -0.067500
     22 C20         -1.0790    -0.0720     2.7150 ca         1 NHB      -0.148600
     23 C23         -2.4170     0.3810     3.2690 c          1 NHB       0.619700
     24 O25         -2.5610     1.4770     3.7990 o          1 NHB      -0.567100
     25 N24         -3.4840    -0.5030     3.1350 ns         1 NHB      -0.392400
     26 O26         -4.7310    -0.2820     3.8400 oh         1 NHB      -0.413100
     27 H7          -0.7630    -1.5530    -3.8380 ha         1 NHB       0.127000
     28 H8          -2.7410    -1.6820    -5.3550 ha         1 NHB       0.125000
     29 H9          -4.2500     0.3290    -5.5260 ha         1 NHB       0.129000
     30 H10         -3.7110     2.3670    -4.1780 h4         1 NHB       0.023100
     31 H3          -0.3590     2.6210    -1.5670 ha         1 NHB       0.157000
     32 H2           1.7660     2.3600    -0.0850 ha         1 NHB       0.153000
     33 H161         2.9460    -3.2270     0.4490 h1         1 NHB       0.056700
     34 H162         4.3160    -2.6140     1.4160 h1         1 NHB       0.056700
     35 H163         2.8080    -3.0810     2.2200 h1         1 NHB       0.056700
     36 H18          2.1670     1.0140     2.5290 ha         1 NHB       0.134000
     37 H19         -0.0260     1.7020     3.4070 ha         1 NHB       0.130500
     38 H22          0.4360    -2.6220     0.9950 ha         1 NHB       0.134000
     39 H21         -1.7570    -1.9710     1.8640 ha         1 NHB       0.130500
     40 H24         -3.3020    -1.4600     2.8420 hn         1 NHB       0.342500
     41 H26         -5.4170    -0.3810     3.1380 ho         1 NHB       0.440000
@<TRIPOS>BOND
     1     1     2 ar  
     2     1     6 ar  
     3     1    27 1   
     4     2     3 ar  
     5     2    28 1   
     6     3     4 ar  
     7     3    29 1   
     8     4     5 ar  
     9     4    30 1   
    10     5     6 ar  
    11     6     7 1   
    12     7     8 1   
    13     7     9 2   
    14     8    11 1   
    15     9    10 1   
    16     9    31 1   
    17    10    11 2   
    18    10    32 1   
    19    11    12 1   
    20    12    13 2   
    21    12    14 2   
    22    12    15 1   
    23    15    16 1   
    24    15    17 1   
    25    16    33 1   
    26    16    34 1   
    27    16    35 1   
    28    17    18 ar  
    29    17    20 ar  
    30    18    19 ar  
    31    18    36 1   
    32    19    22 ar  
    33    19    37 1   
    34    20    21 ar  
    35    20    38 1   
    36    21    22 ar  
    37    21    39 1   
    38    22    23 1   
    39    23    24 2   
    40    23    25 1   
    41    25    26 1   
    42    25    40 1   
    43    26    41 1   
@<TRIPOS>SUBSTRUCTURE
     1 NHB         1 TEMP              0 ****  ****    0 ROOT
