@<TRIPOS>MOLECULE
NHC
   27    28     1     0     0
SMALL
bcc


@<TRIPOS>ATOM
      1 O2          -1.0480     2.3100    -0.8420 o          1 NHC      -0.845800
      2 C8          -1.1300     1.4410     0.0500 c          1 NHC       0.963600
      3 O4          -2.1700     1.1360     0.6680 o          1 NHC      -0.845800
      4 C3           0.1710     0.7380     0.5320 c5         1 NHC      -0.170500
      5 C7           0.3490     1.1890     1.9830 c3         1 NHC      -0.042100
      6 C4           0.1360    -0.8340     0.3200 c5         1 NHC      -0.170500
      7 C10          0.4900    -1.6290     1.5730 c3         1 NHC      -0.042100
      8 C9          -1.2220    -1.3480    -0.2460 c          1 NHC       0.963600
      9 O3          -1.9300    -2.0610     0.4950 o          1 NHC      -0.845800
     10 O5          -1.4840    -1.0600    -1.4310 o          1 NHC      -0.845800
     11 C2           1.3520     1.1070    -0.3780 c5         1 NHC       0.140100
     12 C1           2.7080     0.5970     0.1500 c5         1 NHC      -0.115400
     13 C5           2.6420    -0.8910    -0.2500 c5         1 NHC      -0.115400
     14 C6           1.2110    -0.9660    -0.7980 c5         1 NHC       0.140100
     15 O1           1.1310     0.2660    -1.5000 os         1 NHC      -0.367600
     16 H7          -0.5070     0.8940     2.5860 hc         1 NHC       0.001700
     17 H7A          1.2410     0.7900     2.4640 hc         1 NHC       0.001700
     18 H7B          0.4230     2.2800     2.0330 hc         1 NHC       0.001700
     19 H10         -0.2920    -1.5360     2.3230 hc         1 NHC       0.001700
     20 H10A         0.5950    -2.6920     1.3450 hc         1 NHC       0.001700
     21 H10B         1.4240    -1.3080     2.0350 hc         1 NHC       0.001700
     22 H2           1.3570     2.1540    -0.6790 h1         1 NHC       0.073700
     23 H1           3.5310     1.1130    -0.3500 hc         1 NHC       0.010700
     24 H1A          2.8450     0.7490     1.2200 hc         1 NHC       0.010700
     25 H5           3.3490    -1.1180    -1.0520 hc         1 NHC       0.010700
     26 H5A          2.8550    -1.5820     0.5630 hc         1 NHC       0.010700
     27 H6           1.0460    -1.8010    -1.4800 h1         1 NHC       0.073700
@<TRIPOS>BOND
     1     1     2 1   
     2     2     3 1   
     3     2     4 1   
     4     4     5 1   
     5     4     6 1   
     6     4    11 1   
     7     5    16 1   
     8     5    17 1   
     9     5    18 1   
    10     6     7 1   
    11     6     8 1   
    12     6    14 1   
    13     7    19 1   
    14     7    20 1   
    15     7    21 1   
    16     8     9 1   
    17     8    10 1   
    18    11    12 1   
    19    11    15 1   
    20    11    22 1   
    21    12    13 1   
    22    12    23 1   
    23    12    24 1   
    24    13    14 1   
    25    13    25 1   
    26    13    26 1   
    27    14    15 1   
    28    14    27 1   
@<TRIPOS>SUBSTRUCTURE
     1 NHC         1 TEMP              0 ****  ****    0 ROOT
