@<TRIPOS>MOLECULE
NHC
   27    28     1     0     0
SMALL
No Charge or Current Charge


@<TRIPOS>ATOM
      1 O2          -1.1710     2.1360    -0.9260 o          1 NHC      -0.740500
      2 C8          -1.1620     1.4220     0.0700 c          1 NHC       0.753000
      3 O4          -2.1560     1.3680     0.7820 o          1 NHC      -0.740500
      4 C3           0.1800     0.7420     0.5750 c5         1 NHC      -0.170500
      5 C7           0.3930     1.2060     2.0570 c3         1 NHC      -0.042100
      6 C4           0.1470    -0.8580     0.3240 c5         1 NHC      -0.170500
      7 C10          0.4280    -1.7420     1.5900 c3         1 NHC      -0.042100
      8 C9          -1.2440    -1.3090    -0.3030 c          1 NHC       0.753000
      9 O3          -2.0850    -1.8310     0.4180 o          1 NHC      -0.740500
     10 O5          -1.4050    -1.3250    -1.5170 o          1 NHC      -0.740500
     11 C2           1.3350     1.1620    -0.4260 c5         1 NHC       0.163300
     12 C1           2.7310     0.6730     0.1000 c5         1 NHC      -0.115400
     13 C5           2.6800    -0.8500    -0.2370 c5         1 NHC      -0.115400
     14 C6           1.2360    -0.9910    -0.8250 c5         1 NHC       0.163300
     15 O1           1.1290     0.2580    -1.5110 os         1 NHC      -0.414000
     16 H7          -0.4500     0.9140     2.6950 hc         1 NHC       0.001700
     17 H7A          1.2870     0.7840     2.5250 hc         1 NHC       0.001700
     18 H7B          0.4820     2.2970     2.1100 hc         1 NHC       0.001700
     19 H10         -0.3710    -1.6470     2.3340 hc         1 NHC       0.001700
     20 H10A         0.5020    -2.8010     1.3160 hc         1 NHC       0.001700
     21 H10B         1.3530    -1.4730     2.1090 hc         1 NHC       0.001700
     22 H2           1.3270     2.2140    -0.7440 h1         1 NHC       0.073700
     23 H1           3.5400     1.1610    -0.4540 hc         1 NHC       0.010700
     24 H1A          2.9280     0.8760     1.1550 hc         1 NHC       0.010700
     25 H5           3.4250    -1.0960    -1.0020 hc         1 NHC       0.010700
     26 H5A          2.9050    -1.4990     0.6130 hc         1 NHC       0.010700
     27 H6           1.1110    -1.8540    -1.4950 h1         1 NHC       0.073700
@<TRIPOS>BOND
     1     1     2 1   
     2     2     3 1   
     3     2     4 1   
     4     4     5 1   
     5     4     6 1   
     6     4    11 1   
     7     5    16 1   
     8     5    17 1   
     9     5    18 1   
    10     6     7 1   
    11     6     8 1   
    12     6    14 1   
    13     7    19 1   
    14     7    20 1   
    15     7    21 1   
    16     8     9 1   
    17     8    10 1   
    18    11    12 1   
    19    11    15 1   
    20    11    22 1   
    21    12    13 1   
    22    12    23 1   
    23    12    24 1   
    24    13    14 1   
    25    13    25 1   
    26    13    26 1   
    27    14    15 1   
    28    14    27 1   
@<TRIPOS>SUBSTRUCTURE
     1 NHC         1 TEMP              0 ****  ****    0 ROOT
