@<TRIPOS>MOLECULE
NHD
   69    73     1     0     0
SMALL
No Charge or Current Charge


@<TRIPOS>ATOM
      1 PA           0.0260     0.8210     1.3760 p5         1 NHD       1.481800
      2 O1A          1.4670     1.0010     1.7190 o          1 NHD      -0.865500
      3 O2A         -0.5930    -0.3340     2.0920 o          1 NHD      -0.865500
      4 O5B         -0.7450     2.1880     1.7570 os         1 NHD      -0.577400
      5 C5B         -2.1700     2.2540     1.9480 c3         1 NHD       0.220600
      6 C4B         -2.9460     2.0960     0.5980 c5         1 NHD       0.139300
      7 O4B         -3.3750     0.7200     0.4210 os         1 NHD      -0.391000
      8 C3B         -4.2840     2.9030     0.5500 c5         1 NHD       0.101300
      9 O3B         -4.8260     3.0250    -0.7720 oh         1 NHD      -0.710000
     10 C2B         -5.1690     1.9770     1.4300 c5         1 NHD       0.066300
     11 O2B         -6.5730     2.2640     1.2750 oh         1 NHD      -0.704000
     12 C1B         -4.7380     0.5630     0.8900 c5         1 NHD       0.327300
     13 N9A         -4.8150    -0.5720     1.8150 na         1 NHD      -0.275300
     14 C8A         -5.3700    -0.5560     3.1010 cc         1 NHD       0.433700
     15 N7A         -5.3010    -1.7690     3.6830 nd         1 NHD      -0.525100
     16 C5A         -4.6890    -2.5620     2.7090 ca         1 NHD      -0.008600
     17 C6A         -4.3600    -3.9370     2.7420 ca         1 NHD       0.401300
     18 O6A         -4.6150    -4.7210     3.8250 oh         1 NHD      -0.620300
     19 N1A         -3.7780    -4.5310     1.6830 nb         1 NHD      -0.333000
     20 C2A         -3.5360    -3.7410     0.6080 ca         1 NHD       0.152900
     21 N3A         -3.8190    -2.4220     0.4930 nb         1 NHD      -0.189000
     22 C4A         -4.3950    -1.8510     1.5700 ca         1 NHD       0.141500
     23 O3          -0.2650     0.8540    -0.1700 os         1 NHD      -0.694800
     24 PN           0.6320    -0.1000    -1.0440 p5         1 NHD       1.460800
     25 O1N         -0.0630    -0.4460    -2.3190 o          1 NHD      -0.844500
     26 O2N          1.0900    -1.3440    -0.3590 o          1 NHD      -0.844500
     27 O5D          1.8620     0.9010    -1.3270 os         1 NHD      -0.568400
     28 C5D          1.6760     2.0320    -2.1890 c3         1 NHD       0.204600
     29 C4D          3.0420     2.5240    -2.7610 c5         1 NHD       0.150300
     30 O4D          4.0690     2.5400    -1.7280 os         1 NHD      -0.387000
     31 C3D          3.6360     1.6340    -3.9010 c5         1 NHD       0.111300
     32 O3D          4.5750     2.3370    -4.7250 oh         1 NHD      -0.702000
     33 C2D          4.3760     0.5500    -3.0710 c5         1 NHD       0.070300
     34 O2D          5.3710    -0.1280    -3.8690 oh         1 NHD      -0.721000
     35 C1D          4.9810     1.4240    -1.9200 c5         1 NHD       0.285300
     36 N1N          5.2490     0.7140    -0.6570 na         1 NHD       0.010300
     37 C2N          6.3520    -0.1460    -0.5350 ca         1 NHD      -0.067000
     38 C3N          6.6400    -0.8800     0.6400 ca         1 NHD      -0.195600
     39 C7N          7.8500    -1.7840     0.6680 c          1 NHD       0.630700
     40 O7N          8.6000    -1.9010    -0.2860 o          1 NHD      -0.606100
     41 N7N          8.1070    -2.4840     1.7930 nt         1 NHD      -0.593000
     42 C4N          5.7770    -0.7400     1.7490 ca         1 NHD      -0.020000
     43 C5N          4.6720     0.1180     1.6580 ca         1 NHD      -0.060000
     44 C6N          4.4260     0.8330     0.4740 ca         1 NHD       0.115700
     45 H51A        -2.5060     1.4920     2.6630 h1         1 NHD       0.021200
     46 H52A        -2.4200     3.2310     2.3800 h1         1 NHD       0.021200
     47 H4B         -2.2870     2.3920    -0.2290 h1         1 NHD       0.094700
     48 H3B         -4.1700     3.8980     1.0030 h1         1 NHD       0.042700
     49 HO3A        -5.8010     2.9230    -0.6540 ho         1 NHD       0.506000
     50 H2B         -4.8780     2.0860     2.4850 h1         1 NHD       0.064700
     51 HO2A        -6.7930     3.0290     1.8600 ho         1 NHD       0.499000
     52 H1B         -5.3710     0.2950     0.0350 h2         1 NHD       0.103700
     53 H8A         -5.8020     0.3330     3.5440 h5         1 NHD       0.112800
     54 H6A         -4.2950    -5.6170     3.5900 ho         1 NHD       0.466000
     55 H2A         -3.0680    -4.2160    -0.2520 h5         1 NHD       0.028100
     56 H51N         1.2210     2.8550    -1.6230 h1         1 NHD       0.023200
     57 H52N         1.0070     1.7980    -3.0270 h1         1 NHD       0.023200
     58 H4D          2.8880     3.5490    -3.1240 h1         1 NHD       0.122700
     59 H3D          2.8410     1.1920    -4.5190 h1         1 NHD       0.067700
     60 HO3N         5.2890     1.6720    -4.8860 ho         1 NHD       0.510000
     61 H2D          3.6620    -0.1750    -2.6530 h1         1 NHD       0.082700
     62 HO2N         4.9710    -0.9700    -4.2000 ho         1 NHD       0.525000
     63 H1D          5.9490     1.8250    -2.2450 h2         1 NHD       0.106700
     64 H2N          6.9920    -0.2370    -1.4160 h4         1 NHD       0.178000
     65 H71N         8.9130    -3.0890     1.8180 hn         1 NHD       0.320000
     66 H72N         7.5030    -2.4050     2.5950 hn         1 NHD       0.320000
     67 H4N          5.9450    -1.2810     2.6770 ha         1 NHD       0.138000
     68 H5N          3.9960     0.2350     2.5030 ha         1 NHD       0.226000
     69 H6N          3.5690     1.5020     0.4120 h4         1 NHD       0.261000
@<TRIPOS>BOND
     1     1     2 1   
     2     1     3 1   
     3     1     4 1   
     4     1    23 1   
     5     4     5 1   
     6     5     6 1   
     7     5    45 1   
     8     5    46 1   
     9     6     7 1   
    10     6     8 1   
    11     6    47 1   
    12     7    12 1   
    13     8     9 1   
    14     8    10 1   
    15     8    48 1   
    16     9    49 1   
    17    10    11 1   
    18    10    12 1   
    19    10    50 1   
    20    11    51 1   
    21    12    13 1   
    22    12    52 1   
    23    13    14 1   
    24    13    22 1   
    25    14    15 2   
    26    14    53 1   
    27    15    16 1   
    28    16    17 ar  
    29    16    22 ar  
    30    17    18 1   
    31    17    19 ar  
    32    18    54 1   
    33    19    20 ar  
    34    20    21 ar  
    35    20    55 1   
    36    21    22 ar  
    37    23    24 1   
    38    24    25 1   
    39    24    26 1   
    40    24    27 1   
    41    27    28 1   
    42    28    29 1   
    43    28    56 1   
    44    28    57 1   
    45    29    30 1   
    46    29    31 1   
    47    29    58 1   
    48    30    35 1   
    49    31    32 1   
    50    31    33 1   
    51    31    59 1   
    52    32    60 1   
    53    33    34 1   
    54    33    35 1   
    55    33    61 1   
    56    34    62 1   
    57    35    36 1   
    58    35    63 1   
    59    36    37 1   
    60    36    44 2   
    61    37    38 ar  
    62    37    64 1   
    63    38    39 1   
    64    38    42 ar  
    65    39    40 2   
    66    39    41 1   
    67    41    65 1   
    68    41    66 1   
    69    42    43 ar  
    70    42    67 1   
    71    43    44 ar  
    72    43    68 1   
    73    44    69 1   
@<TRIPOS>SUBSTRUCTURE
     1 NHD         1 TEMP              0 ****  ****    0 ROOT
