@<TRIPOS>MOLECULE
NHD
   69    73     1     0     0
SMALL
abcg2


@<TRIPOS>ATOM
      1 PA           0.0210     2.3520     1.2230 p5         1 NHD       1.481800
      2 O1A          1.2600     3.0880     0.8150 o          1 NHD      -0.865500
      3 O2A         -0.0060     1.5140     2.4670 o          1 NHD      -0.865500
      4 O5B         -1.1610     3.4900     1.3010 os         1 NHD      -0.577400
      5 C5B         -2.3090     3.3300     2.1050 c3         1 NHD       0.220600
      6 C4B         -3.5450     3.0290     1.2740 c5         1 NHD       0.139300
      7 O4B         -3.3690     1.8440     0.5000 os         1 NHD      -0.391000
      8 C3B         -4.7640     2.7710     2.1510 c5         1 NHD       0.101300
      9 O3B         -5.9230     3.0890     1.4250 oh         1 NHD      -0.710000
     10 C2B         -4.6510     1.2580     2.3610 c5         1 NHD       0.066300
     11 O2B         -5.8450     0.6110     2.6830 oh         1 NHD      -0.704000
     12 C1B         -4.1730     0.8090     0.9790 c5         1 NHD       0.327300
     13 N9A         -3.4410    -0.4320     0.9890 na         1 NHD      -0.275300
     14 C8A         -2.2870    -0.7230     1.6690 cc         1 NHD       0.433700
     15 N7A         -1.8810    -1.9450     1.5030 nd         1 NHD      -0.525100
     16 C5A         -2.7950    -2.4930     0.6450 ca         1 NHD      -0.008600
     17 C6A         -2.9390    -3.7450     0.0520 ca         1 NHD       0.401300
     18 O6A         -2.0710    -4.7100     0.3040 oh         1 NHD      -0.620300
     19 N1A         -3.9510    -3.9690    -0.7690 nb         1 NHD      -0.333000
     20 C2A         -4.8180    -2.9840    -1.0080 ca         1 NHD       0.152900
     21 N3A         -4.7980    -1.7620    -0.5110 nb         1 NHD      -0.189000
     22 C4A         -3.7710    -1.5620     0.3050 ca         1 NHD       0.141500
     23 O3          -0.5520     1.5090    -0.0590 os         1 NHD      -0.694800
     24 PN           0.0600     0.1810    -0.7790 p5         1 NHD       1.460800
     25 O1N         -1.0710    -0.5440    -1.4310 o          1 NHD      -0.844500
     26 O2N          1.0420    -0.5220     0.1050 o          1 NHD      -0.844500
     27 O5D          0.9140     0.9950    -1.9520 os         1 NHD      -0.568400
     28 C5D          1.7620     0.2190    -2.7600 c3         1 NHD       0.204600
     29 C4D          2.9140     1.0740    -3.2580 c5         1 NHD       0.150300
     30 O4D          3.6110     1.7290    -2.1860 os         1 NHD      -0.387000
     31 C3D          3.9860     0.2420    -3.9390 c5         1 NHD       0.111300
     32 O3D          4.7430     1.0770    -4.7690 oh         1 NHD      -0.702000
     33 C2D          4.8060    -0.2240    -2.7250 c5         1 NHD       0.070300
     34 O2D          6.1430    -0.5170    -3.0020 oh         1 NHD      -0.721000
     35 C1D          4.7150     1.0070    -1.8060 c5         1 NHD       0.285300
     36 N1N          4.5910     0.6030    -0.3640 na         1 NHD       0.010300
     37 C2N          5.5990    -0.1150     0.1580 ca         1 NHD      -0.067000
     38 C3N          5.5830    -0.4910     1.4780 ca         1 NHD      -0.195600
     39 C7N          6.7460    -1.3020     1.9700 c          1 NHD       0.630700
     40 O7N          7.4440    -1.9100     1.1750 o          1 NHD      -0.606100
     41 N7N          6.9360    -1.3070     3.2920 nt         1 NHD      -0.593000
     42 C4N          4.4830    -0.1280     2.2590 ca         1 NHD      -0.020000
     43 C5N          3.4580     0.6000     1.6960 ca         1 NHD      -0.060000
     44 C6N          3.5360     0.9710     0.3670 ca         1 NHD       0.115700
     45 H51A        -2.1550     2.5590     2.8650 h1         1 NHD       0.021200
     46 H52A        -2.4830     4.2720     2.6350 h1         1 NHD       0.021200
     47 H4B         -3.7280     3.8620     0.5870 h1         1 NHD       0.094700
     48 H3B         -4.7150     3.3250     3.0990 h1         1 NHD       0.042700
     49 HO3A        -6.6630     2.6150     1.8220 ho         1 NHD       0.506000
     50 H2B         -3.8720     1.0600     3.1100 h1         1 NHD       0.064700
     51 HO2A        -5.9930     0.6840     3.6310 ho         1 NHD       0.499000
     52 H1B         -5.0360     0.6390     0.3250 h2         1 NHD       0.103700
     53 H8A         -1.7630     0.0180     2.2560 h5         1 NHD       0.112800
     54 H6A         -2.3220    -5.5010    -0.1930 ho         1 NHD       0.466000
     55 H2A         -5.6280    -3.2210    -1.6880 h5         1 NHD       0.028100
     56 H51N         1.2340    -0.1640    -3.6420 h1         1 NHD       0.023200
     57 H52N         2.1390    -0.6540    -2.2150 h1         1 NHD       0.023200
     58 H4D          2.5320     1.8640    -3.9090 h1         1 NHD       0.122700
     59 H3D          3.5640    -0.6130    -4.4820 h1         1 NHD       0.067700
     60 HO3N         5.5760     0.6330    -4.9680 ho         1 NHD       0.510000
     61 H2D          4.2990    -1.0750    -2.2570 h1         1 NHD       0.082700
     62 HO2N         6.2180    -1.4490    -3.2320 ho         1 NHD       0.525000
     63 H1D          5.6200     1.6190    -1.8520 h2         1 NHD       0.106700
     64 H2N          6.4160    -0.3690    -0.5030 h4         1 NHD       0.178000
     65 H71N         7.7160    -1.8150     3.6790 hn         1 NHD       0.320000
     66 H72N         6.4490    -0.6880     3.9170 hn         1 NHD       0.320000
     67 H4N          4.4130    -0.4230     3.2970 ha         1 NHD       0.138000
     68 H5N          2.5800     0.8830     2.2570 ha         1 NHD       0.226000
     69 H6N          2.7770     1.5780    -0.0980 h4         1 NHD       0.261000
@<TRIPOS>BOND
     1     1     2 1   
     2     1     3 1   
     3     1     4 1   
     4     1    23 1   
     5     4     5 1   
     6     5     6 1   
     7     5    45 1   
     8     5    46 1   
     9     6     7 1   
    10     6     8 1   
    11     6    47 1   
    12     7    12 1   
    13     8     9 1   
    14     8    10 1   
    15     8    48 1   
    16     9    49 1   
    17    10    11 1   
    18    10    12 1   
    19    10    50 1   
    20    11    51 1   
    21    12    13 1   
    22    12    52 1   
    23    13    14 1   
    24    13    22 1   
    25    14    15 2   
    26    14    53 1   
    27    15    16 1   
    28    16    17 ar  
    29    16    22 ar  
    30    17    18 1   
    31    17    19 ar  
    32    18    54 1   
    33    19    20 ar  
    34    20    21 ar  
    35    20    55 1   
    36    21    22 ar  
    37    23    24 1   
    38    24    25 1   
    39    24    26 1   
    40    24    27 1   
    41    27    28 1   
    42    28    29 1   
    43    28    56 1   
    44    28    57 1   
    45    29    30 1   
    46    29    31 1   
    47    29    58 1   
    48    30    35 1   
    49    31    32 1   
    50    31    33 1   
    51    31    59 1   
    52    32    60 1   
    53    33    34 1   
    54    33    35 1   
    55    33    61 1   
    56    34    62 1   
    57    35    36 1   
    58    35    63 1   
    59    36    37 1   
    60    36    44 2   
    61    37    38 ar  
    62    37    64 1   
    63    38    39 1   
    64    38    42 ar  
    65    39    40 2   
    66    39    41 1   
    67    41    65 1   
    68    41    66 1   
    69    42    43 ar  
    70    42    67 1   
    71    43    44 ar  
    72    43    68 1   
    73    44    69 1   
@<TRIPOS>SUBSTRUCTURE
     1 NHD         1 TEMP              0 ****  ****    0 ROOT
