@<TRIPOS>MOLECULE
NHE
   29    29     1     0     0
SMALL
abcg2


@<TRIPOS>ATOM
      1 C3           0.8980     0.4360    -4.4890 c6         1 NHE      -0.072400
      2 C2           1.3210    -0.1610    -3.1510 c6         1 NHE      -0.075900
      3 C1           0.3110     0.1410    -2.0480 c6         1 NHE       0.177500
      4 C6          -1.0750    -0.3480    -2.4630 c6         1 NHE      -0.075900
      5 N            0.7440    -0.4900    -0.8080 n7         1 NHE      -0.866400
      6 C8           0.0960     0.0410     0.3790 c3         1 NHE       0.194800
      7 C7           0.6080    -0.6790     1.6150 c3         1 NHE      -0.358400
      8 S           -0.1190    -0.0570     3.1400 s6         1 NHE       1.323600
      9 O1          -1.5790    -0.2130     2.9810 o          1 NHE      -0.698867
     10 O2           0.3020     1.3560     3.2400 o          1 NHE      -0.698867
     11 O3           0.4400    -0.9040     4.2120 o          1 NHE      -0.698867
     12 C5          -1.5100     0.2550    -3.7950 c6         1 NHE      -0.072400
     13 C4          -0.4940    -0.0360    -4.8940 c6         1 NHE      -0.072400
     14 H3'1         0.9030     1.5290    -4.4150 hc         1 NHE       0.031200
     15 H3'2         1.6280     0.1750    -5.2590 hc         1 NHE       0.031200
     16 H2'1         2.3050     0.2220    -2.8640 hc         1 NHE       0.045950
     17 H2'2         1.4240    -1.2480    -3.2460 hc         1 NHE       0.045950
     18 HC'1         0.2600     1.2390    -1.9320 h1         1 NHE       0.013700
     19 H6'1        -1.0480    -1.4400    -2.5450 hc         1 NHE       0.045950
     20 H6'2        -1.8130    -0.1100    -1.6920 hc         1 NHE       0.045950
     21 HN           1.7430    -0.3420    -0.7110 hn         1 NHE       0.399000
     22 HC11        -0.9810    -0.1170     0.2990 h1         1 NHE       0.040200
     23 HC12         0.2480     1.1240     0.4880 h1         1 NHE       0.040200
     24 HC21         1.6920    -0.5690     1.7100 h1         1 NHE       0.069200
     25 HC22         0.3850    -1.7460     1.5540 h1         1 NHE       0.069200
     26 H5'1        -1.6270     1.3390    -3.6870 hc         1 NHE       0.031200
     27 H5'2        -2.4930    -0.1320    -4.0740 hc         1 NHE       0.031200
     28 H4'1        -0.7990     0.4400    -5.8290 hc         1 NHE       0.029200
     29 H4'2        -0.4690    -1.1140    -5.0870 hc         1 NHE       0.029200
@<TRIPOS>BOND
     1     1     2 1   
     2     1    13 1   
     3     1    14 1   
     4     1    15 1   
     5     2     3 1   
     6     2    16 1   
     7     2    17 1   
     8     3     4 1   
     9     3     5 1   
    10     3    18 1   
    11     4    12 1   
    12     4    19 1   
    13     4    20 1   
    14     5     6 1   
    15     5    21 1   
    16     6     7 1   
    17     6    22 1   
    18     6    23 1   
    19     7     8 1   
    20     7    24 1   
    21     7    25 1   
    22     8     9 1   
    23     8    10 1   
    24     8    11 1   
    25    12    13 1   
    26    12    26 1   
    27    12    27 1   
    28    13    28 1   
    29    13    29 1   
@<TRIPOS>SUBSTRUCTURE
     1 NHE         1 TEMP              0 ****  ****    0 ROOT
