@<TRIPOS>MOLECULE
NHE
   29    29     1     0     0
SMALL
No Charge or Current Charge


@<TRIPOS>ATOM
      1 C3           0.9430     0.3650    -4.5330 c6         1 NHE      -0.072400
      2 C2           1.3300    -0.2330    -3.1570 c6         1 NHE      -0.075900
      3 C1           0.3110     0.1640    -2.0550 c6         1 NHE       0.177500
      4 C6          -1.1280    -0.2580    -2.4720 c6         1 NHE      -0.075900
      5 N            0.7130    -0.4310    -0.7630 n7         1 NHE      -0.866400
      6 C8           0.0140     0.0350     0.4440 c3         1 NHE       0.194800
      7 C7           0.6730    -0.6300     1.6490 c3         1 NHE      -0.358400
      8 S           -0.1120    -0.1380     3.1930 s6         1 NHE       1.323600
      9 O1          -1.5050    -0.5820     3.0430 o          1 NHE      -0.698867
     10 O2           0.0650     1.3210     3.2320 o          1 NHE      -0.698867
     11 O3           0.6530    -0.8690     4.2140 o          1 NHE      -0.698867
     12 C5          -1.5170     0.3360    -3.8510 c6         1 NHE      -0.072400
     13 C4          -0.4900    -0.0540    -4.9410 c6         1 NHE      -0.072400
     14 H3'1         1.0100     1.4610    -4.4920 hc         1 NHE       0.031200
     15 H3'2         1.6600     0.0360    -5.2970 hc         1 NHE       0.031200
     16 H2'1         2.3350     0.1130    -2.8790 hc         1 NHE       0.045950
     17 H2'2         1.3870    -1.3270    -3.2370 hc         1 NHE       0.045950
     18 HC'1         0.3370     1.2590    -1.9510 h1         1 NHE       0.013700
     19 H6'1        -1.1990    -1.3530    -2.5100 hc         1 NHE       0.045950
     20 H6'2        -1.8570     0.0780    -1.7230 hc         1 NHE       0.045950
     21 HN           1.7080    -0.2320    -0.6240 hn         1 NHE       0.399000
     22 HC11        -1.0520    -0.2320     0.4080 h1         1 NHE       0.040200
     23 HC12         0.0900     1.1290     0.5350 h1         1 NHE       0.040200
     24 HC21         1.7270    -0.3430     1.7280 h1         1 NHE       0.069200
     25 HC22         0.5870    -1.7190     1.5870 h1         1 NHE       0.069200
     26 H5'1        -1.5790     1.4300    -3.7760 hc         1 NHE       0.031200
     27 H5'2        -2.5170    -0.0150    -4.1380 hc         1 NHE       0.031200
     28 H4'1        -0.7600     0.4200    -5.8950 hc         1 NHE       0.029200
     29 H4'2        -0.5240    -1.1390    -5.1110 hc         1 NHE       0.029200
@<TRIPOS>BOND
     1     1     2 1   
     2     1    13 1   
     3     1    14 1   
     4     1    15 1   
     5     2     3 1   
     6     2    16 1   
     7     2    17 1   
     8     3     4 1   
     9     3     5 1   
    10     3    18 1   
    11     4    12 1   
    12     4    19 1   
    13     4    20 1   
    14     5     6 1   
    15     5    21 1   
    16     6     7 1   
    17     6    22 1   
    18     6    23 1   
    19     7     8 1   
    20     7    24 1   
    21     7    25 1   
    22     8     9 1   
    23     8    10 1   
    24     8    11 1   
    25    12    13 1   
    26    12    26 1   
    27    12    27 1   
    28    13    28 1   
    29    13    29 1   
@<TRIPOS>SUBSTRUCTURE
     1 NHE         1 TEMP              0 ****  ****    0 ROOT
