@<TRIPOS>MOLECULE
NHF
   21    21     1     0     0
SMALL
bcc


@<TRIPOS>ATOM
      1 O4          -0.3480     2.2550     0.2310 oh         1 NHF      -0.594800
      2 C6          -2.4290     0.3250    -0.3610 c3         1 NHF       0.149400
      3 C5          -1.0730    -0.0150     0.2200 c6         1 NHF       0.140100
      4 C4           0.0040     0.9760    -0.2260 c6         1 NHF       0.133100
      5 O3           2.3450     1.3770    -0.1890 oh         1 NHF      -0.585800
      6 C3           1.3590     0.5460     0.3420 c6         1 NHF       0.006100
      7 C2           1.6220    -0.9260     0.0900 c          1 NHF       0.509100
      8 C1           0.4380    -1.8230     0.3780 c6         1 NHF       0.033400
      9 O2           2.6980    -1.3380    -0.2680 o          1 NHF      -0.495100
     10 O6          -3.3750    -0.5880     0.1430 oh         1 NHF      -0.588800
     11 O5          -0.7220    -1.3080    -0.2250 os         1 NHF      -0.375600
     12 HO4          0.2820     2.8910    -0.1220 ho         1 NHF       0.427000
     13 H6          -2.6740     1.3560    -0.0860 h1         1 NHF       0.038200
     14 H6A         -2.3680     0.2870    -1.4570 h1         1 NHF       0.038200
     15 H5          -1.1390     0.0020     1.3210 h1         1 NHF       0.060700
     16 H4           0.0650     0.9460    -1.3250 h1         1 NHF       0.060700
     17 HO3          3.1940     1.1560     0.2070 ho         1 NHF       0.427000
     18 H3           1.2860     0.6370     1.4410 h1         1 NHF       0.056700
     19 H1           0.6150    -2.8210    -0.0240 h1         1 NHF       0.076200
     20 H1A          0.3230    -1.9130     1.4690 h1         1 NHF       0.076200
     21 HO6         -4.2430    -0.3180    -0.1700 ho         1 NHF       0.407000
@<TRIPOS>BOND
     1     1     4 1   
     2     1    12 1   
     3     2     3 1   
     4     2    10 1   
     5     2    13 1   
     6     2    14 1   
     7     3     4 1   
     8     3    11 1   
     9     3    15 1   
    10     4     6 1   
    11     4    16 1   
    12     5     6 1   
    13     5    17 1   
    14     6     7 1   
    15     6    18 1   
    16     7     8 1   
    17     7     9 2   
    18     8    11 1   
    19     8    19 1   
    20     8    20 1   
    21    10    21 1   
@<TRIPOS>SUBSTRUCTURE
     1 NHF         1 TEMP              0 ****  ****    0 ROOT
