@<TRIPOS>MOLECULE
NHF
   21    21     1     0     0
SMALL
No Charge or Current Charge


@<TRIPOS>ATOM
      1 O4          -0.3240     2.3410     0.2630 oh         1 NHF      -0.717000
      2 C6          -2.5260     0.3140    -0.3460 c3         1 NHF       0.172600
      3 C5          -1.1220    -0.0230     0.2590 c6         1 NHF       0.163300
      4 C4          -0.0260     1.0040    -0.1750 c6         1 NHF       0.156300
      5 O3           2.4070     1.4560    -0.2670 oh         1 NHF      -0.648000
      6 C3           1.3920     0.6080     0.3380 c6         1 NHF       0.029300
      7 C2           1.6720    -0.9120     0.1310 c          1 NHF       0.509100
      8 C1           0.4760    -1.8370     0.4430 c6         1 NHF       0.056600
      9 O2           2.7650    -1.3400    -0.2280 o          1 NHF      -0.495100
     10 O6          -3.5420    -0.6540    -0.0060 oh         1 NHF      -0.711000
     11 O5          -0.7450    -1.3590    -0.1720 os         1 NHF      -0.422000
     12 HO4          0.5190     2.8420     0.1370 ho         1 NHF       0.526000
     13 H6          -2.8240     1.3090     0.0120 h1         1 NHF       0.038200
     14 H6A         -2.4190     0.3810    -1.4370 h1         1 NHF       0.038200
     15 H5          -1.2140    -0.0160     1.3550 h1         1 NHF       0.060700
     16 H4           0.0080     0.9830    -1.2750 h1         1 NHF       0.060700
     17 HO3          3.2660     0.9760    -0.1990 ho         1 NHF       0.466000
     18 H3           1.4000     0.7400     1.4300 h1         1 NHF       0.056700
     19 H1           0.7100    -2.8420     0.0670 h1         1 NHF       0.076200
     20 H1A          0.3520    -1.8800     1.5350 h1         1 NHF       0.076200
     21 HO6         -4.3650    -0.3840    -0.4780 ho         1 NHF       0.506000
@<TRIPOS>BOND
     1     1     4 1   
     2     1    12 1   
     3     2     3 1   
     4     2    10 1   
     5     2    13 1   
     6     2    14 1   
     7     3     4 1   
     8     3    11 1   
     9     3    15 1   
    10     4     6 1   
    11     4    16 1   
    12     5     6 1   
    13     5    17 1   
    14     6     7 1   
    15     6    18 1   
    16     7     8 1   
    17     7     9 2   
    18     8    11 1   
    19     8    19 1   
    20     8    20 1   
    21    10    21 1   
@<TRIPOS>SUBSTRUCTURE
     1 NHF         1 TEMP              0 ****  ****    0 ROOT
