@<TRIPOS>MOLECULE
NHG
   28    30     1     0     0
SMALL
bcc


@<TRIPOS>ATOM
      1 CW2          1.4540    -0.9370    -0.1280 ca         1 NHG      -0.172000
      2 CW3          0.3180    -0.1750     0.0780 ca         1 NHG      -0.099300
      3 CW7         -1.0980    -0.6240     0.3050 c5         1 NHG      -0.047700
      4 CK2         -1.2410    -1.4390     1.5870 c3         1 NHG      -0.072100
      5 CW9         -1.7500    -1.3320    -0.8980 c5         1 NHG      -0.102400
      6 CK1         -3.0930    -0.6120    -1.0340 c5         1 NHG       0.137800
      7 NW2         -2.8250     0.7850    -0.7140 n7         1 NHG      -0.772200
      8 CW8         -1.8660     0.7480     0.3880 c5         1 NHG       0.403700
      9 NW1         -0.8730     1.7960     0.2750 nu         1 NHG      -0.734600
     10 CW4          0.3860     1.2130     0.1160 ca         1 NHG       0.091600
     11 CW5          1.6070     1.8560    -0.0370 ca         1 NHG      -0.123000
     12 CW6          2.7520     1.0930    -0.2300 ca         1 NHG      -0.133000
     13 CW1          2.6830    -0.2970    -0.2840 ca         1 NHG       0.104100
     14 OW1          3.8390    -0.9800    -0.4850 oh         1 NHG      -0.498100
     15 HW2          1.3900    -2.0200    -0.1610 ha         1 NHG       0.132000
     16 HK21        -0.8930    -0.8740     2.4540 hc         1 NHG       0.038033
     17 HK22        -2.2840    -1.7100     1.7610 hc         1 NHG       0.038033
     18 HK23        -0.6600    -2.3610     1.5330 hc         1 NHG       0.038033
     19 HW91        -1.1590    -1.1820    -1.8040 hc         1 NHG       0.054700
     20 HW92        -1.8500    -2.4080    -0.7460 hc         1 NHG       0.054700
     21 HW8         -2.4080     0.8280     1.3360 h2         1 NHG       0.069700
     22 HK11        -3.5360    -0.7020    -2.0260 h1         1 NHG       0.055700
     23 HK12        -3.8150    -1.0180    -0.3190 h1         1 NHG       0.055700
     24 HA          -2.3540     1.2130    -1.5050 hn         1 NHG       0.363800
     25 HW1         -0.9390     2.5390     0.9540 hn         1 NHG       0.409800
     26 HW5          1.6780     2.9370    -0.0090 ha         1 NHG       0.141000
     27 HW6          3.7110     1.5840    -0.3480 ha         1 NHG       0.146000
     28 HB           3.6670    -1.9270    -0.4840 ho         1 NHG       0.421000
@<TRIPOS>BOND
     1     1     2 ar  
     2     1    13 ar  
     3     1    15 1   
     4     2     3 1   
     5     2    10 ar  
     6     3     4 1   
     7     3     5 1   
     8     3     8 1   
     9     4    16 1   
    10     4    17 1   
    11     4    18 1   
    12     5     6 1   
    13     5    19 1   
    14     5    20 1   
    15     6     7 1   
    16     6    22 1   
    17     6    23 1   
    18     7     8 1   
    19     7    24 1   
    20     8     9 1   
    21     8    21 1   
    22     9    10 1   
    23     9    25 1   
    24    10    11 ar  
    25    11    12 ar  
    26    11    26 1   
    27    12    13 ar  
    28    12    27 1   
    29    13    14 1   
    30    14    28 1   
@<TRIPOS>SUBSTRUCTURE
     1 NHG         1 TEMP              0 ****  ****    0 ROOT
