@<TRIPOS>MOLECULE
NHG
   28    30     1     0     0
SMALL
No Charge or Current Charge


@<TRIPOS>ATOM
      1 CW2          1.4620    -0.9600    -0.0200 ca         1 NHG      -0.154000
      2 CW3          0.2980    -0.1780     0.0900 ca         1 NHG      -0.099300
      3 CW7         -1.1110    -0.6410     0.3430 c5         1 NHG      -0.047700
      4 CK2         -1.2720    -1.5890     1.5560 c3         1 NHG      -0.072100
      5 CW9         -1.6810    -1.1870    -1.0000 c5         1 NHG      -0.102400
      6 CK1         -3.1070    -0.6000    -0.9390 c5         1 NHG       0.137800
      7 NW2         -2.8560     0.8090    -0.5640 n7         1 NHG      -0.827400
      8 CW8         -1.8740     0.7490     0.4920 c5         1 NHG       0.403700
      9 NW1         -0.8950     1.7870     0.1340 nu         1 NHG      -0.928200
     10 CW4          0.3520     1.1940     0.0080 ca         1 NHG       0.230000
     11 CW5          1.5700     1.8640    -0.1720 ca         1 NHG      -0.105000
     12 CW6          2.7510     1.1010    -0.2870 ca         1 NHG      -0.115000
     13 CW1          2.6960    -0.3070    -0.2140 ca         1 NHG       0.104100
     14 OW1          3.8440    -1.0330    -0.3240 oh         1 NHG      -0.537100
     15 HW2          1.4050    -2.0430     0.0500 ha         1 NHG       0.114000
     16 HK21        -0.8720    -1.1290     2.4680 hc         1 NHG       0.038033
     17 HK22        -2.3270    -1.8270     1.7390 hc         1 NHG       0.038033
     18 HK23        -0.7390    -2.5330     1.3960 hc         1 NHG       0.038033
     19 HW91        -1.1400    -0.8070    -1.8760 hc         1 NHG       0.054700
     20 HW92        -1.6750    -2.2810    -1.0580 hc         1 NHG       0.054700
     21 HW8         -2.3090     0.8750     1.4960 h2         1 NHG       0.069700
     22 HK11        -3.6280    -0.6800    -1.9040 h1         1 NHG       0.055700
     23 HK12        -3.7210    -1.1080    -0.1800 h1         1 NHG       0.055700
     24 HA          -2.3330     1.2490    -1.3240 hn         1 NHG       0.419000
     25 HW1         -0.9210     2.7060     0.5770 hn         1 NHG       0.465000
     26 HW5          1.6010     2.9480    -0.2310 ha         1 NHG       0.123000
     27 HW6          3.7060     1.6000    -0.4330 ha         1 NHG       0.128000
     28 HB           3.6200    -1.9860    -0.2500 ho         1 NHG       0.460000
@<TRIPOS>BOND
     1     1     2 ar  
     2     1    13 ar  
     3     1    15 1   
     4     2     3 1   
     5     2    10 ar  
     6     3     4 1   
     7     3     5 1   
     8     3     8 1   
     9     4    16 1   
    10     4    17 1   
    11     4    18 1   
    12     5     6 1   
    13     5    19 1   
    14     5    20 1   
    15     6     7 1   
    16     6    22 1   
    17     6    23 1   
    18     7     8 1   
    19     7    24 1   
    20     8     9 1   
    21     8    21 1   
    22     9    10 1   
    23     9    25 1   
    24    10    11 ar  
    25    11    12 ar  
    26    11    26 1   
    27    12    13 ar  
    28    12    27 1   
    29    13    14 1   
    30    14    28 1   
@<TRIPOS>SUBSTRUCTURE
     1 NHG         1 TEMP              0 ****  ****    0 ROOT
