@<TRIPOS>MOLECULE
NHH
   32    32     1     0     0
SMALL
No Charge or Current Charge


@<TRIPOS>ATOM
      1 N7           4.8110    -1.6420    -0.5860 nv         1 NHH      -1.041700
      2 C8           3.8310    -0.7870    -0.4530 c2         1 NHH       0.815100
      3 N8           3.8280    -0.0720    -1.5460 nv         1 NHH      -1.041700
      4 N6           3.6110    -0.2620     0.7030 ne         1 NHH      -0.581700
      5 N5           2.8530     0.9370     0.7920 ne         1 NHH      -0.440200
      6 C4           1.5600     0.8680     1.0260 c2         1 NHH       0.413800
      7 C5           0.7120     2.1310     1.1100 c6         1 NHH      -0.130200
      8 C6          -0.4980     2.0810     0.1380 c6         1 NHH      -0.130200
      9 C3           0.7290    -0.4090     1.2270 c6         1 NHH      -0.130200
     10 C2          -0.4880    -0.4660     0.2620 c6         1 NHH      -0.130200
     11 C1          -1.3330     0.8180     0.3210 c2         1 NHH       0.413800
     12 N1          -2.6370     0.8920     0.4810 ne         1 NHH      -0.440200
     13 N2          -3.3930    -0.3040     0.6160 ne         1 NHH      -0.581700
     14 C7          -3.9600    -0.8170    -0.4220 c2         1 NHH       0.815100
     15 N3          -4.2730    -0.0890    -1.4610 nv         1 NHH      -1.041700
     16 N4          -4.9290    -1.6830    -0.2720 nv         1 NHH      -1.041700
     17 HN71         5.0710    -1.9940     0.3260 hn         1 NHH       0.474500
     18 HN72         4.5700    -2.3810    -1.2330 hn         1 NHH       0.474500
     19 HN81         4.7420    -0.1530    -1.9610 hn         1 NHH       0.474500
     20 HN82         3.5970     0.8750    -1.2800 hn         1 NHH       0.474500
     21 H51          0.3530     2.2500     2.1410 hc         1 NHH       0.059575
     22 H52          1.3260     3.0160     0.8940 hc         1 NHH       0.059575
     23 H61         -1.1240     2.9730     0.2790 hc         1 NHH       0.059575
     24 H62         -0.1380     2.1190    -0.8990 hc         1 NHH       0.059575
     25 H31          1.3280    -1.3190     1.1050 hc         1 NHH       0.059575
     26 H32          0.3680    -0.4270     2.2640 hc         1 NHH       0.059575
     27 H21         -1.0790    -1.3610     0.4900 hc         1 NHH       0.059575
     28 H22         -0.1280    -0.5980    -0.7670 hc         1 NHH       0.059575
     29 HN31        -3.9520     0.8470    -1.2580 hn         1 NHH       0.474500
     30 HN32        -5.2700    -0.1440    -1.5950 hn         1 NHH       0.474500
     31 HN41        -4.8980    -2.3860    -0.9980 hn         1 NHH       0.474500
     32 HN42        -4.8980    -2.0800     0.6580 hn         1 NHH       0.474500
@<TRIPOS>BOND
     1     1     2 1   
     2     1    17 1   
     3     1    18 1   
     4     2     3 1   
     5     2     4 2   
     6     3    19 1   
     7     3    20 1   
     8     4     5 1   
     9     5     6 2   
    10     6     7 1   
    11     6     9 1   
    12     7     8 1   
    13     7    21 1   
    14     7    22 1   
    15     8    11 1   
    16     8    23 1   
    17     8    24 1   
    18     9    10 1   
    19     9    25 1   
    20     9    26 1   
    21    10    11 1   
    22    10    27 1   
    23    10    28 1   
    24    11    12 2   
    25    12    13 1   
    26    13    14 2   
    27    14    15 1   
    28    14    16 1   
    29    15    29 1   
    30    15    30 1   
    31    16    31 1   
    32    16    32 1   
@<TRIPOS>SUBSTRUCTURE
     1 NHH         1 TEMP              0 ****  ****    0 ROOT
