@<TRIPOS>MOLECULE
NHH
   32    32     1     0     0
SMALL
bcc


@<TRIPOS>ATOM
      1 N7           5.4690    -1.4870     0.0660 nv         1 NHH      -0.931300
      2 C8           4.6150    -0.4270    -0.0140 c2         1 NHH       0.815100
      3 N8           5.1630     0.7600    -0.3750 nv         1 NHH      -0.931300
      4 N6           3.3580    -0.6270     0.2530 ne         1 NHH      -0.581700
      5 N5           2.6440     0.5420     0.2590 ne         1 NHH      -0.440200
      6 C4           1.3840     0.4530     0.4330 c2         1 NHH       0.413800
      7 C5           0.5730     1.7140     0.4440 c6         1 NHH      -0.130200
      8 C6          -0.5570     1.6410    -0.5950 c6         1 NHH      -0.130200
      9 C3           0.5890    -0.8080     0.6070 c6         1 NHH      -0.130200
     10 C2          -0.5530    -0.8810    -0.4220 c6         1 NHH      -0.130200
     11 C1          -1.3580     0.3860    -0.4160 c2         1 NHH       0.413800
     12 N1          -2.6180     0.4890    -0.2520 ne         1 NHH      -0.440200
     13 N2          -3.3240    -0.6710    -0.0760 ne         1 NHH      -0.581700
     14 C7          -4.5980    -0.4470     0.0600 c2         1 NHH       0.815100
     15 N3          -5.2060     0.7570    -0.0910 nv         1 NHH      -0.931300
     16 N4          -5.4100    -1.4960     0.3770 nv         1 NHH      -0.931300
     17 HN71         5.0190    -2.3870     0.1090 hn         1 NHH       0.419300
     18 HN72         6.2770    -1.4730    -0.5360 hn         1 NHH       0.419300
     19 HN81         6.1440     0.8990    -0.2000 hn         1 NHH       0.419300
     20 HN82         4.5770     1.5630    -0.2090 hn         1 NHH       0.419300
     21 H51          0.1270     1.8470     1.4360 hc         1 NHH       0.059575
     22 H52          1.2150     2.5760     0.2560 hc         1 NHH       0.059575
     23 H61         -1.2060     2.5140    -0.5200 hc         1 NHH       0.059575
     24 H62         -0.1120     1.6460    -1.5960 hc         1 NHH       0.059575
     25 H31          1.2240    -1.6870     0.5290 hc         1 NHH       0.059575
     26 H32          0.1530    -0.8070     1.6130 hc         1 NHH       0.059575
     27 H21         -1.1820    -1.7470    -0.2280 hc         1 NHH       0.059575
     28 H22         -0.1170    -1.0100    -1.4190 hc         1 NHH       0.059575
     29 HN31        -4.5780     1.5440    -0.1140 hn         1 NHH       0.419300
     30 HN32        -6.0700     0.9130     0.4020 hn         1 NHH       0.419300
     31 HN41        -6.3620    -1.4540     0.0520 hn         1 NHH       0.419300
     32 HN42        -4.9880    -2.4040     0.2690 hn         1 NHH       0.419300
@<TRIPOS>BOND
     1     1     2 1   
     2     1    17 1   
     3     1    18 1   
     4     2     3 1   
     5     2     4 2   
     6     3    19 1   
     7     3    20 1   
     8     4     5 1   
     9     5     6 2   
    10     6     7 1   
    11     6     9 1   
    12     7     8 1   
    13     7    21 1   
    14     7    22 1   
    15     8    11 1   
    16     8    23 1   
    17     8    24 1   
    18     9    10 1   
    19     9    25 1   
    20     9    26 1   
    21    10    11 1   
    22    10    27 1   
    23    10    28 1   
    24    11    12 2   
    25    12    13 1   
    26    13    14 2   
    27    14    15 1   
    28    14    16 1   
    29    15    29 1   
    30    15    30 1   
    31    16    31 1   
    32    16    32 1   
@<TRIPOS>SUBSTRUCTURE
     1 NHH         1 TEMP              0 ****  ****    0 ROOT
