@<TRIPOS>MOLECULE
NHI
   38    40     1     0     0
SMALL
No Charge or Current Charge


@<TRIPOS>ATOM
      1 C01          6.5380    -2.1190     0.0100 c          1 NHI       0.715600
      2 O01          7.6120    -1.9170    -0.5390 o          1 NHI      -0.727500
      3 N02          0.5210     1.1170     0.0330 nb         1 NHI      -0.316000
      4 O02          6.2640    -3.1780     0.5570 o          1 NHI      -0.727500
      5 N03         -1.4650     2.4480     0.2550 nb         1 NHI      -0.269000
      6 C05         -5.2080     0.2630    -0.6020 ca         1 NHI      -0.069500
      7 C06         -5.6270    -0.9940    -0.1080 ca         1 NHI      -0.157600
      8 C07         -4.6510    -1.8620     0.4320 ca         1 NHI      -0.069500
      9 C08         -3.2990    -1.4780     0.4820 ca         1 NHI      -0.177500
     10 C09         -2.8910    -0.2220     0.0060 ca         1 NHI       0.278000
     11 C10         -3.8540     0.6400    -0.5490 ca         1 NHI      -0.177500
     12 C12         -0.8070     1.2830     0.1050 ca         1 NHI       0.422900
     13 C13          1.2660     2.2290     0.1030 ca         1 NHI       0.427900
     14 C14          0.6880     3.4930     0.2310 ca         1 NHI      -0.370000
     15 C15         -0.7100     3.5590     0.3120 ca         1 NHI       0.163900
     16 C16          3.5580     1.0700     0.0090 ca         1 NHI       0.266000
     17 C17          4.8090     1.2620    -0.5970 ca         1 NHI      -0.175000
     18 C18          5.7710     0.2370    -0.6030 ca         1 NHI      -0.068500
     19 C19          5.5010    -1.0070     0.0120 ca         1 NHI      -0.151600
     20 C20          4.2460    -1.1890     0.6370 ca         1 NHI      -0.068500
     21 C21          3.2880    -0.1590     0.6380 ca         1 NHI      -0.175000
     22 O25         -7.9000    -0.6230    -0.6420 o          1 NHI      -0.730500
     23 O26         -7.4070    -2.5030     0.2700 o          1 NHI      -0.730500
     24 HN01        -0.9280    -0.7100     0.1800 hn         1 NHI       0.503000
     25 HN04         3.0770     3.0300    -0.1950 hn         1 NHI       0.481000
     26 H05         -5.9300     0.9510    -1.0360 ha         1 NHI       0.123000
     27 H07         -4.9360    -2.8390     0.8170 ha         1 NHI       0.123000
     28 H08         -2.5680    -2.1630     0.9020 ha         1 NHI       0.108000
     29 H10         -3.5650     1.6010    -0.9600 ha         1 NHI       0.108000
     30 H14          1.2910     4.3950     0.2760 ha         1 NHI       0.114000
     31 H15         -1.2310     4.5090     0.4230 h4         1 NHI       0.000100
     32 H17          5.0400     2.2100    -1.0770 ha         1 NHI       0.104500
     33 H18          6.7280     0.4150    -1.0880 ha         1 NHI       0.124500
     34 H20          4.0080    -2.1290     1.1310 ha         1 NHI       0.124500
     35 H21          2.3450    -0.3240     1.1480 ha         1 NHI       0.104500
     36 N04          2.6450     2.1290    -0.0020 nu         1 NHI      -0.928900
     37 N01         -1.5330     0.1010     0.0670 nu         1 NHI      -0.919900
     38 C11         -7.0900    -1.4050    -0.1650 c          1 NHI       0.716600
@<TRIPOS>BOND
     1     1     2 1   
     2     1     4 1   
     3     1    19 1   
     4     3    12 ar  
     5     3    13 ar  
     6     5    12 ar  
     7     5    15 ar  
     8     6     7 ar  
     9     6    11 ar  
    10     6    26 1   
    11     7     8 ar  
    12     7    38 1   
    13     8     9 ar  
    14     8    27 1   
    15     9    10 ar  
    16     9    28 1   
    17    10    11 ar  
    18    10    37 1   
    19    11    29 1   
    20    12    37 1   
    21    13    14 ar  
    22    13    36 1   
    23    14    15 ar  
    24    14    30 1   
    25    15    31 1   
    26    16    17 ar  
    27    16    21 ar  
    28    16    36 1   
    29    17    18 ar  
    30    17    32 1   
    31    18    19 ar  
    32    18    33 1   
    33    19    20 ar  
    34    20    21 ar  
    35    20    34 1   
    36    21    35 1   
    37    22    38 1   
    38    23    38 1   
    39    24    37 1   
    40    25    36 1   
@<TRIPOS>SUBSTRUCTURE
     1 NHI         1 TEMP              0 ****  ****    0 ROOT
