@<TRIPOS>MOLECULE
NHI
   38    40     1     0     0
SMALL
abcg2


@<TRIPOS>ATOM
      1 C01          6.4380    -2.1270     0.2590 c          1 NHI       0.715600
      2 O01          7.6290    -1.8030     0.0790 o          1 NHI      -0.727500
      3 N02          0.5310     1.1420    -0.0140 nb         1 NHI      -0.316000
      4 O02          6.0100    -3.2690     0.5160 o          1 NHI      -0.727500
      5 N03         -1.4520     2.4440    -0.1290 nb         1 NHI      -0.269000
      6 C05         -5.1910     0.3460     0.0150 ca         1 NHI      -0.069500
      7 C06         -5.5420    -0.9990     0.0680 ca         1 NHI      -0.157600
      8 C07         -4.5050    -1.9280     0.1160 ca         1 NHI      -0.069500
      9 C08         -3.1820    -1.5290     0.1100 ca         1 NHI      -0.177500
     10 C09         -2.8380    -0.1720     0.0580 ca         1 NHI       0.278000
     11 C10         -3.8690     0.7700     0.0090 ca         1 NHI      -0.177500
     12 C12         -0.7980     1.2980    -0.0300 ca         1 NHI       0.422900
     13 C13          1.2740     2.2290    -0.1160 ca         1 NHI       0.427900
     14 C14          0.6810     3.5060    -0.2320 ca         1 NHI      -0.370000
     15 C15         -0.6840     3.5340    -0.2290 ca         1 NHI       0.163900
     16 C16          3.4860     1.0460    -0.0220 ca         1 NHI       0.266000
     17 C17          4.8510     1.3120    -0.1890 ca         1 NHI      -0.175000
     18 C18          5.7860     0.3000    -0.1020 ca         1 NHI      -0.068500
     19 C19          5.4080    -1.0160     0.1590 ca         1 NHI      -0.151600
     20 C20          4.0510    -1.2690     0.3230 ca         1 NHI      -0.068500
     21 C21          3.0920    -0.2690     0.2360 ca         1 NHI      -0.175000
     22 O25         -7.8550    -0.5370     0.0300 o          1 NHI      -0.730500
     23 O26         -7.2050    -2.6660     0.1580 o          1 NHI      -0.730500
     24 HN01        -0.8690    -0.6790     0.1270 hn         1 NHI       0.503000
     25 HN04         3.1000     3.0220    -0.2440 hn         1 NHI       0.481000
     26 H05         -5.9740     1.0930    -0.0230 ha         1 NHI       0.123000
     27 H07         -4.7360    -2.9840     0.1600 ha         1 NHI       0.123000
     28 H08         -2.3980    -2.2780     0.1460 ha         1 NHI       0.108000
     29 H10         -3.6420     1.8220    -0.0320 ha         1 NHI       0.108000
     30 H14          1.2690     4.4090    -0.3200 ha         1 NHI       0.114000
     31 H15         -1.2080     4.4790    -0.3140 h4         1 NHI       0.000100
     32 H17          5.1770     2.3250    -0.3940 ha         1 NHI       0.104500
     33 H18          6.8330     0.5380    -0.2390 ha         1 NHI       0.124500
     34 H20          3.7240    -2.2800     0.5290 ha         1 NHI       0.124500
     35 H21          2.0520    -0.5090     0.3720 ha         1 NHI       0.104500
     36 N04          2.6280     2.1400    -0.1160 nu         1 NHI      -0.928900
     37 N01         -1.4790     0.1210     0.0630 nu         1 NHI      -0.919900
     38 C11         -6.9960    -1.4400     0.0810 c          1 NHI       0.716600
@<TRIPOS>BOND
     1     1     2 1   
     2     1     4 1   
     3     1    19 1   
     4     3    12 ar  
     5     3    13 ar  
     6     5    12 ar  
     7     5    15 ar  
     8     6     7 ar  
     9     6    11 ar  
    10     6    26 1   
    11     7     8 ar  
    12     7    38 1   
    13     8     9 ar  
    14     8    27 1   
    15     9    10 ar  
    16     9    28 1   
    17    10    11 ar  
    18    10    37 1   
    19    11    29 1   
    20    12    37 1   
    21    13    14 ar  
    22    13    36 1   
    23    14    15 ar  
    24    14    30 1   
    25    15    31 1   
    26    16    17 ar  
    27    16    21 ar  
    28    16    36 1   
    29    17    18 ar  
    30    17    32 1   
    31    18    19 ar  
    32    18    33 1   
    33    19    20 ar  
    34    20    21 ar  
    35    20    34 1   
    36    21    35 1   
    37    22    38 1   
    38    23    38 1   
    39    24    37 1   
    40    25    36 1   
@<TRIPOS>SUBSTRUCTURE
     1 NHI         1 TEMP              0 ****  ****    0 ROOT
