@<TRIPOS>MOLECULE
NHJ
   41    43     1     0     0
SMALL
No Charge or Current Charge


@<TRIPOS>ATOM
      1 N01         -2.1130     0.0220     0.2040 nu         1 NHJ      -0.927900
      2 N02          0.0240    -0.7990     0.2540 nb         1 NHJ      -0.317000
      3 N03         -1.8360    -2.3150     0.1780 nb         1 NHJ      -0.252000
      4 N05         -8.2890     2.0870     0.1830 nt         1 NHJ      -0.606000
      5 C06         -4.3080    -0.6550    -0.6710 ca         1 NHJ      -0.169500
      6 C07         -5.6840    -0.4030    -0.8070 ca         1 NHJ      -0.039000
      7 C08         -6.2690     0.7420    -0.2220 ca         1 NHJ      -0.187600
      8 C09         -5.4370     1.6320     0.4960 ca         1 NHJ      -0.039000
      9 C10         -4.0610     1.3720     0.6250 ca         1 NHJ      -0.169500
     10 C11         -3.4880     0.2240     0.0570 ca         1 NHJ       0.343000
     11 C12         -1.2830    -1.0890     0.2050 ca         1 NHJ       0.421900
     12 C13          0.8660    -1.8420     0.2750 ca         1 NHJ       0.425900
     13 C14          0.4040    -3.1590     0.2320 ca         1 NHJ      -0.327000
     14 C15         -0.9840    -3.3560     0.1880 ca         1 NHJ       0.173900
     15 C16          3.0210    -0.4580     0.4860 ca         1 NHJ       0.311000
     16 C17          2.5790     0.6460     1.2410 ca         1 NHJ      -0.104000
     17 C18          3.4150     1.7600     1.4260 ca         1 NHJ      -0.092000
     18 C19          4.7010     1.7800     0.8620 ca         1 NHJ      -0.089000
     19 C20          5.1660     0.6820     0.1070 ca         1 NHJ      -0.163300
     20 C21          4.3160    -0.4370    -0.0610 ca         1 NHJ      -0.128000
     21 C22          6.5760     0.6860    -0.4980 c3         1 NHJ       0.355300
     22 O24         -8.4810     0.2280    -1.0050 o          1 NHJ      -0.610100
     23 F25          7.4690     0.1050     0.3340 f          1 NHJ      -0.113333
     24 F26          6.6320     0.0120    -1.6700 f          1 NHJ      -0.113333
     25 F27          7.0270     1.9360    -0.7510 f          1 NHJ      -0.113333
     26 HN01        -1.6020     0.8720     0.4370 hn         1 NHJ       0.508000
     27 HN04         2.7710    -2.4260     0.0410 hn         1 NHJ       0.502000
     28 HN05        -7.7090     2.7270     0.7010 hn         1 NHJ       0.312000
     29 HN0A        -9.2780     2.2590     0.0810 hn         1 NHJ       0.312000
     30 H06         -3.8860    -1.5290    -1.1550 ha         1 NHJ       0.134000
     31 H07         -6.2940    -1.1020    -1.3760 ha         1 NHJ       0.123000
     32 H09         -5.8380     2.5300     0.9600 ha         1 NHJ       0.123000
     33 H10         -3.4390     2.0680     1.1810 ha         1 NHJ       0.134000
     34 H14          1.0860    -4.0040     0.2370 ha         1 NHJ       0.136000
     35 H15         -1.4190    -4.3540     0.1610 h4         1 NHJ       0.026100
     36 H17          1.6000     0.6380     1.7060 ha         1 NHJ       0.151000
     37 H18          3.0680     2.6060     2.0140 ha         1 NHJ       0.121000
     38 H19          5.3360     2.6490     1.0230 ha         1 NHJ       0.135000
     39 H21          4.6640    -1.2960    -0.6290 ha         1 NHJ       0.124000
     40 C23         -7.7540     0.9850    -0.3840 c          1 NHJ       0.622700
     41 N04          2.2310    -1.6000     0.2930 nu         1 NHJ      -0.935900
@<TRIPOS>BOND
     1     1    10 1   
     2     1    11 1   
     3     1    26 1   
     4     2    11 ar  
     5     2    12 ar  
     6     3    11 ar  
     7     3    14 ar  
     8     4    28 1   
     9     4    29 1   
    10     4    40 1   
    11     5     6 ar  
    12     5    10 ar  
    13     5    30 1   
    14     6     7 ar  
    15     6    31 1   
    16     7     8 ar  
    17     7    40 1   
    18     8     9 ar  
    19     8    32 1   
    20     9    10 ar  
    21     9    33 1   
    22    12    13 ar  
    23    12    41 1   
    24    13    14 ar  
    25    13    34 1   
    26    14    35 1   
    27    15    16 ar  
    28    15    20 ar  
    29    15    41 1   
    30    16    17 ar  
    31    16    36 1   
    32    17    18 ar  
    33    17    37 1   
    34    18    19 ar  
    35    18    38 1   
    36    19    20 ar  
    37    19    21 1   
    38    20    39 1   
    39    21    23 1   
    40    21    24 1   
    41    21    25 1   
    42    22    40 2   
    43    27    41 1   
@<TRIPOS>SUBSTRUCTURE
     1 NHJ         1 TEMP              0 ****  ****    0 ROOT
