@<TRIPOS>MOLECULE
NHJ
   41    43     1     0     0
SMALL
abcg2


@<TRIPOS>ATOM
      1 N01         -2.0910     0.0360     0.1370 nu         1 NHJ      -0.927900
      2 N02          0.0190    -0.7620     0.0990 nb         1 NHJ      -0.317000
      3 N03         -1.8010    -2.2450    -0.2490 nb         1 NHJ      -0.252000
      4 N05         -8.1840     2.0610     0.4400 nt         1 NHJ      -0.606000
      5 C06         -4.3770    -0.8580    -0.1440 ca         1 NHJ      -0.169500
      6 C07         -5.7340    -0.5870    -0.1790 ca         1 NHJ      -0.039000
      7 C08         -6.2370     0.6950     0.0220 ca         1 NHJ      -0.187600
      8 C09         -5.3210     1.7250     0.2420 ca         1 NHJ      -0.039000
      9 C10         -3.9650     1.4740     0.2720 ca         1 NHJ      -0.169500
     10 C11         -3.4650     0.1780     0.0840 ca         1 NHJ       0.343000
     11 C12         -1.2800    -1.0530    -0.0140 ca         1 NHJ       0.421900
     12 C13          0.8790    -1.7550    -0.0380 ca         1 NHJ       0.425900
     13 C14          0.4370    -3.0700    -0.2910 ca         1 NHJ      -0.327000
     14 C15         -0.9180    -3.2390    -0.3830 ca         1 NHJ       0.173900
     15 C16          2.9390    -0.3620     0.2850 ca         1 NHJ       0.311000
     16 C17          2.3840     0.8790     0.6110 ca         1 NHJ      -0.104000
     17 C18          3.2150     1.9660     0.8270 ca         1 NHJ      -0.092000
     18 C19          4.5950     1.8630     0.7300 ca         1 NHJ      -0.089000
     19 C20          5.1420     0.6290     0.4070 ca         1 NHJ      -0.163300
     20 C21          4.3270    -0.4700     0.1850 ca         1 NHJ      -0.128000
     21 C22          6.6220     0.4410     0.2870 c3         1 NHJ       0.355300
     22 O24         -8.4510     0.0400    -0.5080 o          1 NHJ      -0.610100
     23 F25          7.0780    -0.4720     1.1580 f          1 NHJ      -0.113333
     24 F26          6.9710     0.0070    -0.9330 f          1 NHJ      -0.113333
     25 F27          7.3050     1.5670     0.5090 f          1 NHJ      -0.113333
     26 HN01        -1.5770     0.8870     0.3130 hn         1 NHJ       0.508000
     27 HN04         2.7840    -2.3460    -0.0930 hn         1 NHJ       0.502000
     28 HN05        -7.6140     2.7200     0.9400 hn         1 NHJ       0.312000
     29 HN0A        -9.1760     2.2320     0.4360 hn         1 NHJ       0.312000
     30 H06         -4.0290    -1.8670    -0.2950 ha         1 NHJ       0.134000
     31 H07         -6.4170    -1.4050    -0.3610 ha         1 NHJ       0.123000
     32 H09         -5.6430     2.7500     0.3770 ha         1 NHJ       0.123000
     33 H10         -3.2780     2.2960     0.4360 ha         1 NHJ       0.134000
     34 H14          1.1230    -3.8970    -0.4070 ha         1 NHJ       0.136000
     35 H15         -1.3310    -4.2220    -0.5770 h4         1 NHJ       0.026100
     36 H17          1.3170     0.9960     0.6950 ha         1 NHJ       0.151000
     37 H18          2.7710     2.9200     1.0810 ha         1 NHJ       0.121000
     38 H19          5.2140     2.7310     0.9070 ha         1 NHJ       0.135000
     39 H21          4.7620    -1.4300    -0.0730 ha         1 NHJ       0.124000
     40 C23         -7.7120     0.8980    -0.0380 c          1 NHJ       0.622700
     41 N04          2.2150    -1.5270     0.0580 nu         1 NHJ      -0.935900
@<TRIPOS>BOND
     1     1    10 1   
     2     1    11 1   
     3     1    26 1   
     4     2    11 ar  
     5     2    12 ar  
     6     3    11 ar  
     7     3    14 ar  
     8     4    28 1   
     9     4    29 1   
    10     4    40 1   
    11     5     6 ar  
    12     5    10 ar  
    13     5    30 1   
    14     6     7 ar  
    15     6    31 1   
    16     7     8 ar  
    17     7    40 1   
    18     8     9 ar  
    19     8    32 1   
    20     9    10 ar  
    21     9    33 1   
    22    12    13 ar  
    23    12    41 1   
    24    13    14 ar  
    25    13    34 1   
    26    14    35 1   
    27    15    16 ar  
    28    15    20 ar  
    29    15    41 1   
    30    16    17 ar  
    31    16    36 1   
    32    17    18 ar  
    33    17    37 1   
    34    18    19 ar  
    35    18    38 1   
    36    19    20 ar  
    37    19    21 1   
    38    20    39 1   
    39    21    23 1   
    40    21    24 1   
    41    21    25 1   
    42    22    40 2   
    43    27    41 1   
@<TRIPOS>SUBSTRUCTURE
     1 NHJ         1 TEMP              0 ****  ****    0 ROOT
