@<TRIPOS>MOLECULE
NHK
   36    36     1     0     0
SMALL
No Charge or Current Charge


@<TRIPOS>ATOM
      1 O4          -0.1940    -4.9550    -5.8790 o          1 NHK      -0.541500
      2 S1          -1.0360    -5.9420    -5.1950 sy         1 NHK       1.213600
      3 O3          -0.5550    -7.2930    -4.8930 o          1 NHK      -0.541500
      4 N2          -1.4850    -5.2370    -3.6980 n3         1 NHK      -0.748500
      5 C10         -0.6970    -4.0320    -3.2600 c3         1 NHK       0.140800
      6 C9          -1.1110    -2.6440    -3.8320 c          1 NHK       0.537100
      7 O1          -1.8950    -1.8900    -3.2650 o          1 NHK      -0.611100
      8 N1          -0.5470    -2.2860    -5.0470 ns         1 NHK      -0.361400
      9 O2          -1.0240    -1.1160    -5.7490 oh         1 NHK      -0.441100
     10 C8          -2.9460    -5.1960    -3.3890 c3         1 NHK       0.216800
     11 C6          -3.3320    -4.9110    -1.9060 c3         1 NHK       0.157600
     12 O6          -2.8080    -5.9110    -1.0130 oh         1 NHK      -0.650000
     13 C3          -2.5850    -6.0230    -6.1110 ca         1 NHK      -0.360500
     14 C5          -3.0620    -4.8850    -6.7900 ca         1 NHK       0.025500
     15 C7          -4.2720    -4.9520    -7.5000 ca         1 NHK      -0.189500
     16 C4          -5.0080    -6.1450    -7.5440 ca         1 NHK       0.195100
     17 C2          -4.5270    -7.2860    -6.8700 ca         1 NHK      -0.189500
     18 C1          -3.3170    -7.2270    -6.1570 ca         1 NHK       0.025500
     19 O5          -6.1890    -6.1450    -8.2590 os         1 NHK      -0.343100
     20 C11         -7.0200    -7.3150    -8.3680 c3         1 NHK       0.146900
     21 H10         -0.7550    -3.9310    -2.1690 h1         1 NHK       0.090200
     22 H10A         0.3710    -4.1690    -3.4770 h1         1 NHK       0.090200
     23 HN1         -0.1020    -3.0120    -5.6150 hn         1 NHK       0.360500
     24 HO2         -1.8330    -0.8750    -5.2320 ho         1 NHK       0.474000
     25 H8          -3.4430    -4.4410    -4.0130 h1         1 NHK       0.075200
     26 H8A         -3.4070    -6.1610    -3.6360 h1         1 NHK       0.075200
     27 H6          -2.9710    -3.9160    -1.6180 h1         1 NHK       0.024200
     28 H6A         -4.4280    -4.8880    -1.8350 h1         1 NHK       0.024200
     29 HO6         -3.0650    -5.6470    -0.1030 ho         1 NHK       0.442000
     30 H5          -2.5060    -3.9480    -6.7690 ha         1 NHK       0.130000
     31 H7          -4.6410    -4.0730    -8.0210 ha         1 NHK       0.129000
     32 H2          -5.0730    -8.2240    -6.8870 ha         1 NHK       0.129000
     33 H1          -2.9590    -8.1170    -5.6400 ha         1 NHK       0.130000
     34 H11         -7.9060    -7.0970    -8.9770 h1         1 NHK       0.048033
     35 H11A        -6.4740    -8.1380    -8.8460 h1         1 NHK       0.048033
     36 H11B        -7.3610    -7.6450    -7.3790 h1         1 NHK       0.048033
@<TRIPOS>BOND
     1     1     2 2   
     2     2     3 2   
     3     2     4 1   
     4     2    13 1   
     5     4     5 1   
     6     4    10 1   
     7     5     6 1   
     8     5    21 1   
     9     5    22 1   
    10     6     7 2   
    11     6     8 1   
    12     8     9 1   
    13     8    23 1   
    14     9    24 1   
    15    10    11 1   
    16    10    25 1   
    17    10    26 1   
    18    11    12 1   
    19    11    27 1   
    20    11    28 1   
    21    12    29 1   
    22    13    14 ar  
    23    13    18 ar  
    24    14    15 ar  
    25    14    30 1   
    26    15    16 ar  
    27    15    31 1   
    28    16    17 ar  
    29    16    19 1   
    30    17    18 ar  
    31    17    32 1   
    32    18    33 1   
    33    19    20 1   
    34    20    34 1   
    35    20    35 1   
    36    20    36 1   
@<TRIPOS>SUBSTRUCTURE
     1 NHK         1 TEMP              0 ****  ****    0 ROOT
