@<TRIPOS>MOLECULE
NHK
   36    36     1     0     0
SMALL
abcg2


@<TRIPOS>ATOM
      1 O4          -0.0100    -5.7260    -5.1000 o          1 NHK      -0.541500
      2 S1          -1.2780    -6.2260    -4.6190 sy         1 NHK       1.213600
      3 O3          -1.3580    -7.5630    -4.0820 o          1 NHK      -0.541500
      4 N2          -1.7600    -5.2070    -3.4220 n3         1 NHK      -0.748500
      5 C10         -1.6000    -3.7750    -3.6450 c3         1 NHK       0.140800
      6 C9          -2.6670    -3.1700    -4.5500 c          1 NHK       0.537100
      7 O1          -3.8740    -3.4000    -4.4500 o          1 NHK      -0.611100
      8 N1          -2.2070    -2.3080    -5.4650 ns         1 NHK      -0.361400
      9 O2          -3.1120    -1.7580    -6.3640 oh         1 NHK      -0.441100
     10 C8          -2.7720    -5.6410    -2.4420 c3         1 NHK       0.216800
     11 C6          -2.2970    -5.4690    -1.0140 c3         1 NHK       0.157600
     12 O6          -1.1960    -6.3440    -0.7780 oh         1 NHK      -0.650000
     13 C3          -2.4360    -6.0860    -5.9400 ca         1 NHK      -0.360500
     14 C5          -2.1460    -5.2720    -7.0350 ca         1 NHK       0.025500
     15 C7          -3.0860    -5.1040    -8.0330 ca         1 NHK      -0.189500
     16 C4          -4.3270    -5.7470    -7.9460 ca         1 NHK       0.195100
     17 C2          -4.6130    -6.5670    -6.8500 ca         1 NHK      -0.189500
     18 C1          -3.6650    -6.7320    -5.8510 ca         1 NHK       0.025500
     19 O5          -5.1810    -5.5210    -8.9670 os         1 NHK      -0.343100
     20 C11         -6.4770    -6.1270    -8.9250 c3         1 NHK       0.146900
     21 H10         -1.6730    -3.2780    -2.6770 h1         1 NHK       0.090200
     22 H10A        -0.6050    -3.5770    -4.0360 h1         1 NHK       0.090200
     23 HN1         -1.2520    -2.2510    -5.7830 hn         1 NHK       0.360500
     24 HO2         -3.9430    -2.2250    -6.1380 ho         1 NHK       0.474000
     25 H8          -3.6900    -5.0740    -2.5920 h1         1 NHK       0.075200
     26 H8A         -2.9870    -6.6920    -2.6190 h1         1 NHK       0.075200
     27 H6          -2.0100    -4.4300    -0.8220 h1         1 NHK       0.024200
     28 H6A         -3.1380    -5.7100    -0.3540 h1         1 NHK       0.024200
     29 HO6         -0.8700    -6.1880     0.1160 ho         1 NHK       0.442000
     30 H5          -1.1890    -4.7750    -7.1010 ha         1 NHK       0.130000
     31 H7          -2.8780    -4.4780    -8.8900 ha         1 NHK       0.129000
     32 H2          -5.5610    -7.0770    -6.7690 ha         1 NHK       0.129000
     33 H1          -3.8890    -7.3670    -5.0050 ha         1 NHK       0.130000
     34 H11         -6.9870    -5.7940    -9.8250 h1         1 NHK       0.048033
     35 H11A        -6.3970    -7.2160    -8.9270 h1         1 NHK       0.048033
     36 H11B        -7.0300    -5.7980    -8.0430 h1         1 NHK       0.048033
@<TRIPOS>BOND
     1     1     2 2   
     2     2     3 2   
     3     2     4 1   
     4     2    13 1   
     5     4     5 1   
     6     4    10 1   
     7     5     6 1   
     8     5    21 1   
     9     5    22 1   
    10     6     7 2   
    11     6     8 1   
    12     8     9 1   
    13     8    23 1   
    14     9    24 1   
    15    10    11 1   
    16    10    25 1   
    17    10    26 1   
    18    11    12 1   
    19    11    27 1   
    20    11    28 1   
    21    12    29 1   
    22    13    14 ar  
    23    13    18 ar  
    24    14    15 ar  
    25    14    30 1   
    26    15    16 ar  
    27    15    31 1   
    28    16    17 ar  
    29    16    19 1   
    30    17    18 ar  
    31    17    32 1   
    32    18    33 1   
    33    19    20 1   
    34    20    34 1   
    35    20    35 1   
    36    20    36 1   
@<TRIPOS>SUBSTRUCTURE
     1 NHK         1 TEMP              0 ****  ****    0 ROOT
