@<TRIPOS>MOLECULE
NHL
   36    37     1     0     0
SMALL
bcc


@<TRIPOS>ATOM
      1 C8          -3.5460    -4.4860     1.0310 ca         1 NHL      -0.097000
      2 C7          -4.7370    -4.8500     0.4680 ca         1 NHL      -0.155000
      3 C3          -5.0810    -4.4200    -0.8350 ca         1 NHL      -0.048000
      4 C2          -6.3010    -4.7810    -1.4540 ca         1 NHL      -0.120000
      5 C1          -6.6000    -4.3460    -2.7160 ca         1 NHL      -0.158000
      6 C6          -5.6900    -3.5280    -3.4190 ca         1 NHL      -0.163000
      7 C5          -4.5020    -3.1650    -2.8460 ca         1 NHL      -0.097000
      8 C4          -4.1630    -3.6000    -1.5420 ca         1 NHL      -0.027000
      9 C10         -2.9400    -3.2440    -0.9270 ca         1 NHL      -0.106000
     10 C9          -2.6170    -3.6720     0.3360 ca         1 NHL      -0.015300
     11 C11         -1.3310    -3.2750     1.0000 c3         1 NHL      -0.023100
     12 CG          -1.4810    -2.0650     1.9320 c3         1 NHL      -0.184700
     13 CD          -1.9430    -0.8300     1.1340 c          1 NHL       0.931600
     14 OE2         -2.9940    -0.2640     1.4930 o          1 NHL      -0.854300
     15 OE1         -1.2100    -0.4830     0.1810 o          1 NHL      -0.854300
     16 CB          -0.1450    -1.7920     2.6210 c3         1 NHL      -0.021400
     17 CA          -0.1790    -0.6970     3.6890 c3         1 NHL       0.020500
     18 N           -1.0940    -1.0710     4.7570 n8         1 NHL      -0.866800
     19 C            1.2710    -0.3930     4.1430 c          1 NHL       0.896600
     20 OXT          1.9950     0.1960     3.3130 o          1 NHL      -0.863800
     21 O            1.6140    -0.7720     5.2820 o          1 NHL      -0.863800
     22 H8          -3.2980    -4.8300     2.0290 ha         1 NHL       0.127000
     23 H7          -5.4290    -5.4800     1.0140 ha         1 NHL       0.105000
     24 HC2         -6.9980    -5.4090    -0.9120 ha         1 NHL       0.107000
     25 H1          -7.5360    -4.6280    -3.1810 ha         1 NHL       0.101000
     26 H6          -5.9360    -3.1880    -4.4170 ha         1 NHL       0.105000
     27 H5          -3.8040    -2.5350    -3.3860 ha         1 NHL       0.129000
     28 H10         -2.2500    -2.6090    -1.4700 ha         1 NHL       0.160000
     29 H111        -0.5780    -3.0470     0.2430 hc         1 NHL       0.030700
     30 H112        -0.9480    -4.1220     1.5780 hc         1 NHL       0.030700
     31 HG          -2.2310    -2.2930     2.6940 hc         1 NHL       0.047700
     32 HB3          0.2160    -2.7200     3.0860 hc         1 NHL       0.021200
     33 HB2          0.5910    -1.5240     1.8600 hc         1 NHL       0.021200
     34 H15         -0.5700     0.2150     3.2260 h1         1 NHL       0.072700
     35 H           -1.1990    -0.2840     5.3870 hn         1 NHL       0.304800
     36 H2          -0.6370    -1.7800     5.3210 hn         1 NHL       0.304800
@<TRIPOS>BOND
     1     1     2 ar  
     2     1    10 ar  
     3     1    22 1   
     4     2     3 ar  
     5     2    23 1   
     6     3     4 ar  
     7     3     8 ar  
     8     4     5 ar  
     9     4    24 1   
    10     5     6 ar  
    11     5    25 1   
    12     6     7 ar  
    13     6    26 1   
    14     7     8 ar  
    15     7    27 1   
    16     8     9 ar  
    17     9    10 ar  
    18     9    28 1   
    19    10    11 1   
    20    11    12 1   
    21    11    29 1   
    22    11    30 1   
    23    12    13 1   
    24    12    16 1   
    25    12    31 1   
    26    13    14 1   
    27    13    15 1   
    28    16    17 1   
    29    16    32 1   
    30    16    33 1   
    31    17    18 1   
    32    17    19 1   
    33    17    34 1   
    34    18    35 1   
    35    18    36 1   
    36    19    20 1   
    37    19    21 1   
@<TRIPOS>SUBSTRUCTURE
     1 NHL         1 TEMP              0 ****  ****    0 ROOT
