@<TRIPOS>MOLECULE
NHL
   36    37     1     0     0
SMALL
No Charge or Current Charge


@<TRIPOS>ATOM
      1 C8          -3.5970    -4.4120     1.0430 ca         1 NHL      -0.097000
      2 C7          -4.8250    -4.7770     0.4640 ca         1 NHL      -0.155000
      3 C3          -5.1230    -4.3980    -0.8570 ca         1 NHL      -0.048000
      4 C2          -6.3510    -4.7620    -1.4410 ca         1 NHL      -0.120000
      5 C1          -6.6430    -4.3810    -2.7620 ca         1 NHL      -0.158000
      6 C6          -5.7100    -3.6360    -3.5030 ca         1 NHL      -0.163000
      7 C5          -4.4820    -3.2700    -2.9240 ca         1 NHL      -0.097000
      8 C4          -4.1840    -3.6490    -1.6010 ca         1 NHL      -0.027000
      9 C10         -2.9550    -3.2860    -1.0160 ca         1 NHL      -0.106000
     10 C9          -2.6560    -3.6650     0.3070 ca         1 NHL      -0.015300
     11 C11         -1.3240    -3.2780     0.9390 c3         1 NHL      -0.023100
     12 CG          -1.4420    -2.0820     1.9210 c3         1 NHL      -0.184700
     13 CD          -1.9410    -0.8100     1.1930 c          1 NHL       0.931600
     14 OE2         -3.0240    -0.3340     1.5120 o          1 NHL      -0.854300
     15 OE1         -1.2370    -0.3100     0.3230 o          1 NHL      -0.854300
     16 CB          -0.0990    -1.8330     2.6720 c3         1 NHL      -0.021400
     17 CA          -0.1200    -0.6960     3.7330 c3         1 NHL       0.020500
     18 N           -1.0810    -1.0270     4.8560 n8         1 NHL      -0.866800
     19 C            1.3630    -0.3160     4.1580 c          1 NHL       0.896600
     20 OXT          1.7900     0.7980     3.8750 o          1 NHL      -0.863800
     21 O            2.0010    -1.0970     4.8590 o          1 NHL      -0.863800
     22 H8          -3.3740    -4.7090     2.0650 ha         1 NHL       0.127000
     23 H7          -5.5420    -5.3530     1.0440 ha         1 NHL       0.105000
     24 HC2         -7.0780    -5.3380    -0.8730 ha         1 NHL       0.107000
     25 H1          -7.5930    -4.6630    -3.2110 ha         1 NHL       0.101000
     26 H6          -5.9380    -3.3410    -4.5250 ha         1 NHL       0.105000
     27 H5          -3.7650    -2.6930    -3.5040 ha         1 NHL       0.129000
     28 H10         -2.2330    -2.7080    -1.5880 ha         1 NHL       0.160000
     29 H111        -0.5860    -3.0410     0.1620 hc         1 NHL       0.030700
     30 H112        -0.9200    -4.1440     1.4780 hc         1 NHL       0.030700
     31 HG          -2.1980    -2.3540     2.6670 hc         1 NHL       0.047700
     32 HB3          0.2190    -2.7640     3.1590 hc         1 NHL       0.021200
     33 HB2          0.6750    -1.5990     1.9310 hc         1 NHL       0.021200
     34 H15         -0.5100     0.2040     3.2390 h1         1 NHL       0.072700
     35 H           -1.1100    -0.2440     5.5160 hn         1 NHL       0.304800
     36 H2          -0.6900    -1.8020     5.4020 hn         1 NHL       0.304800
@<TRIPOS>BOND
     1     1     2 ar  
     2     1    10 ar  
     3     1    22 1   
     4     2     3 ar  
     5     2    23 1   
     6     3     4 ar  
     7     3     8 ar  
     8     4     5 ar  
     9     4    24 1   
    10     5     6 ar  
    11     5    25 1   
    12     6     7 ar  
    13     6    26 1   
    14     7     8 ar  
    15     7    27 1   
    16     8     9 ar  
    17     9    10 ar  
    18     9    28 1   
    19    10    11 1   
    20    11    12 1   
    21    11    29 1   
    22    11    30 1   
    23    12    13 1   
    24    12    16 1   
    25    12    31 1   
    26    13    14 1   
    27    13    15 1   
    28    16    17 1   
    29    16    32 1   
    30    16    33 1   
    31    17    18 1   
    32    17    19 1   
    33    17    34 1   
    34    18    35 1   
    35    18    36 1   
    36    19    20 1   
    37    19    21 1   
@<TRIPOS>SUBSTRUCTURE
     1 NHL         1 TEMP              0 ****  ****    0 ROOT
