@<TRIPOS>MOLECULE
NHN
  113   117     1     0     0
SMALL
No Charge or Current Charge


@<TRIPOS>ATOM
      1 C1         189.7600   -10.6390    48.2920 c3         1 NHN      -0.149400
      2 C2         189.3800   -11.4560    49.5500 c3         1 NHN      -0.021100
      3 C3         189.8600   -10.8270    50.8540 ca         1 NHN      -0.054300
      4 C4         190.9070   -11.4130    51.5970 ca         1 NHN      -0.178000
      5 C5         189.2180    -9.6780    51.3520 ca         1 NHN      -0.143000
      6 C6         191.2940   -10.8600    52.8390 ca         1 NHN       0.131100
      7 C7         189.6040    -9.1240    52.5830 ca         1 NHN      -0.078000
      8 C8         190.6320    -9.7220    53.3280 ca         1 NHN      -0.138000
      9 C9         191.2420   -10.7850    47.9440 c          1 NHN       0.601100
     10 O10        191.7110   -11.8270    47.5080 o          1 NHN      -0.624100
     11 O11        192.2880   -11.4100    53.6250 os         1 NHN      -0.353100
     12 C12        193.3710   -12.1980    53.0830 c3         1 NHN       0.160600
     13 C13        194.2610   -11.2720    52.2290 c3         1 NHN       0.120600
     14 O14        195.4020   -12.0260    51.7550 os         1 NHN      -0.462000
     15 N15        192.0050    -9.6540    48.1220 ns         1 NHN      -0.495900
     16 C16        193.4600    -9.5660    47.8610 c3         1 NHN       0.043700
     17 C17        193.7800    -8.8010    46.5330 c6         1 NHN      -0.072700
     18 C18        195.3130    -8.7490    46.2610 c6         1 NHN      -0.072400
     19 C19        193.0400    -9.4080    45.3010 c6         1 NHN      -0.072400
     20 C20        195.6420    -7.9880    44.9530 c6         1 NHN      -0.072900
     21 C21        193.3750    -8.6470    43.9950 c6         1 NHN      -0.072900
     22 C22        194.9010    -8.6060    43.7440 c6         1 NHN      -0.076400
     23 C23        194.1430    -8.9350    49.1140 c          1 NHN       0.595100
     24 O24        193.7520    -7.8630    49.5660 o          1 NHN      -0.620100
     25 N25        195.2310    -9.6020    49.7240 n          1 NHN      -0.404800
     26 C26        195.5600   -11.0310    49.4880 c5         1 NHN       0.069000
     27 C27        195.9660    -8.9980    50.8720 c5         1 NHN       0.033700
     28 C28        196.9630   -10.1300    51.2910 c5         1 NHN      -0.115400
     29 C29        196.3260   -11.4530    50.7720 c5         1 NHN       0.166300
     30 C30        196.7810    -7.7120    50.5180 c          1 NHN       0.593100
     31 O31        197.1350    -7.3340    49.4080 o          1 NHN      -0.614100
     32 N32        197.0660    -7.0180    51.6780 ns         1 NHN      -0.474900
     33 C33        197.7810    -5.7210    51.7370 c3         1 NHN       0.009700
     34 C34        196.7990    -4.5190    51.7840 c3         1 NHN      -0.087400
     35 C35        195.8630    -4.4060    50.5570 c3         1 NHN      -0.075400
     36 C36        194.9610    -3.1580    50.6010 c3         1 NHN      -0.086100
     37 C38        198.7660    -5.7010    52.9400 c          1 NHN       0.487100
     38 O39        199.9300    -3.6450    53.6960 o          1 NHN      -0.568100
     39 N40        200.8450    -4.7280    51.9010 ns         1 NHN      -0.479900
     40 C41        201.9680    -3.7900    51.6740 c3         1 NHN       0.027000
     41 C42        202.8300    -4.2040    50.4590 c          1 NHN       0.585100
     42 O43        202.6040    -5.2050    49.7900 o          1 NHN      -0.614100
     43 C44        199.8950    -4.5800    52.9010 c          1 NHN       0.507100
     44 N45        203.8840    -3.3630    50.1830 ns         1 NHN      -0.488900
     45 C46        204.8330    -3.5380    49.0640 c3         1 NHN       0.091000
     46 C47        204.2110    -3.0180    47.7670 ca         1 NHN      -0.115300
     47 C48        203.7750    -3.9250    46.7790 ca         1 NHN      -0.083500
     48 C49        204.0620    -1.6330    47.5450 ca         1 NHN      -0.083500
     49 C50        203.2080    -3.4530    45.5830 ca         1 NHN      -0.112500
     50 C51        203.4940    -1.1630    46.3490 ca         1 NHN      -0.112500
     51 C52        203.0680    -2.0720    45.3660 ca         1 NHN      -0.099000
     52 C53        206.2010    -2.8430    49.3840 c          1 NHN       0.598100
     53 O54        206.3150    -2.0910    50.3500 o          1 NHN      -0.625100
     54 N55        207.3090    -3.0650    48.5270 n          1 NHN      -0.397800
     55 C56        208.5970    -2.3820    48.7830 c3         1 NHN       0.084300
     56 C57        207.2460    -4.0030    47.3810 c3         1 NHN       0.084300
     57 H11        189.1780   -11.0300    47.4490 hc         1 NHN       0.061700
     58 H12        189.5020    -9.5860    48.4510 hc         1 NHN       0.061700
     59 H21        189.7570   -12.4820    49.4480 hc         1 NHN       0.061700
     60 H22        188.2870   -11.5470    49.5830 hc         1 NHN       0.061700
     61 H4         191.3880   -12.3080    51.2150 ha         1 NHN       0.131000
     62 H5         188.4070    -9.2200    50.7900 ha         1 NHN       0.111000
     63 H7         189.0980    -8.2400    52.9650 ha         1 NHN       0.115000
     64 H8         190.9230    -9.3000    54.2870 ha         1 NHN       0.127000
     65 H121       193.0030   -13.0400    52.4850 h1         1 NHN       0.067200
     66 H122       193.9770   -12.6100    53.9000 h1         1 NHN       0.067200
     67 H131       194.5840   -10.4300    52.8530 h1         1 NHN       0.042200
     68 H132       193.6630   -10.8870    51.3940 h1         1 NHN       0.042200
     69 H15        191.5350    -8.8400    48.5040 hn         1 NHN       0.327500
     70 H16        193.8430   -10.5820    47.7270 h1         1 NHN       0.091700
     71 H17        193.4200    -7.7710    46.6750 hc         1 NHN       0.064700
     72 H181       195.7170    -9.7700    46.2020 hc         1 NHN       0.045700
     73 H182       195.8340    -8.2580    47.0940 hc         1 NHN       0.045700
     74 H191       191.9530    -9.3810    45.4540 hc         1 NHN       0.045700
     75 H192       193.3120   -10.4680    45.1890 hc         1 NHN       0.045700
     76 H201       196.7250    -8.0060    44.7740 hc         1 NHN       0.041450
     77 H202       195.3600    -6.9310    45.0590 hc         1 NHN       0.041450
     78 H211       192.9810    -7.6230    44.0520 hc         1 NHN       0.041450
     79 H212       192.8710    -9.1280    43.1450 hc         1 NHN       0.041450
     80 H221       195.2750    -9.6220    43.5590 hc         1 NHN       0.039700
     81 H222       195.1150    -8.0230    42.8370 hc         1 NHN       0.039700
     82 H261       196.1970   -11.1350    48.6000 h1         1 NHN       0.076700
     83 H262       194.6690   -11.6580    49.3460 h1         1 NHN       0.076700
     84 H27        195.2660    -8.7470    51.6790 h1         1 NHN       0.078700
     85 H281       197.1520   -10.1480    52.3700 hc         1 NHN       0.076700
     86 H282       197.9370    -9.9880    50.8070 hc         1 NHN       0.076700
     87 H29        197.0920   -12.2100    50.5510 h1         1 NHN       0.093700
     88 H32        196.7520    -7.4320    52.5500 hn         1 NHN       0.333500
     89 H33        198.3980    -5.6200    50.8330 h1         1 NHN       0.100700
     90 H341       197.3780    -3.5890    51.8640 hc         1 NHN       0.062700
     91 H342       196.1900    -4.5870    52.6950 hc         1 NHN       0.062700
     92 H351       195.2240    -5.2950    50.4950 hc         1 NHN       0.049700
     93 H352       196.4650    -4.3790    49.6400 hc         1 NHN       0.049700
     94 H361       194.3160    -3.1210    49.7150 hc         1 NHN       0.032033
     95 H362       195.5640    -2.2430    50.6240 hc         1 NHN       0.032033
     96 H363       194.3200    -3.1740    51.4910 hc         1 NHN       0.032033
     97 H40        200.7730    -5.5380    51.2900 hn         1 NHN       0.332500
     98 H411       202.6120    -3.7620    52.5620 h1         1 NHN       0.075200
     99 H412       201.5760    -2.7810    51.4910 h1         1 NHN       0.075200
    100 H45        204.0230    -2.5720    50.8030 hn         1 NHN       0.348500
    101 H46        205.0440    -4.6100    48.9650 h1         1 NHN       0.082700
    102 H48        203.8740    -4.9970    46.9380 ha         1 NHN       0.119500
    103 H49        204.3840    -0.9180    48.3000 ha         1 NHN       0.119500
    104 H50        202.8750    -4.1580    44.8240 ha         1 NHN       0.115000
    105 H51        203.3840    -0.0930    46.1830 ha         1 NHN       0.115000
    106 H52        202.6290    -1.7070    44.4400 ha         1 NHN       0.113000
    107 H561       209.0620    -2.7980    49.6860 h1         1 NHN       0.047200
    108 H562       208.4270    -1.3070    48.9300 h1         1 NHN       0.047200
    109 H563       209.2830    -2.5120    47.9360 h1         1 NHN       0.047200
    110 H571       208.2520    -4.2000    46.9890 h1         1 NHN       0.047200
    111 H572       206.6380    -3.5680    46.5770 h1         1 NHN       0.047200
    112 H573       206.8090    -4.9600    47.6930 h1         1 NHN       0.047200
    113 O37        198.6920    -6.5070    53.8680 o          1 NHN      -0.467100
@<TRIPOS>BOND
     1     1     2 1   
     2     1     9 1   
     3     1    57 1   
     4     1    58 1   
     5     2     3 1   
     6     2    59 1   
     7     2    60 1   
     8     3     4 ar  
     9     3     5 ar  
    10     4     6 ar  
    11     4    61 1   
    12     5     7 ar  
    13     5    62 1   
    14     6     8 ar  
    15     6    11 1   
    16     7     8 ar  
    17     7    63 1   
    18     8    64 1   
    19     9    10 2   
    20     9    15 1   
    21    11    12 1   
    22    12    13 1   
    23    12    65 1   
    24    12    66 1   
    25    13    14 1   
    26    13    67 1   
    27    13    68 1   
    28    14    29 1   
    29    15    16 1   
    30    15    69 1   
    31    16    17 1   
    32    16    23 1   
    33    16    70 1   
    34    17    18 1   
    35    17    19 1   
    36    17    71 1   
    37    18    20 1   
    38    18    72 1   
    39    18    73 1   
    40    19    21 1   
    41    19    74 1   
    42    19    75 1   
    43    20    22 1   
    44    20    76 1   
    45    20    77 1   
    46    21    22 1   
    47    21    78 1   
    48    21    79 1   
    49    22    80 1   
    50    22    81 1   
    51    23    24 2   
    52    23    25 1   
    53    25    26 1   
    54    25    27 1   
    55    26    29 1   
    56    26    82 1   
    57    26    83 1   
    58    27    28 1   
    59    27    30 1   
    60    27    84 1   
    61    28    29 1   
    62    28    85 1   
    63    28    86 1   
    64    29    87 1   
    65    30    31 2   
    66    30    32 1   
    67    32    33 1   
    68    32    88 1   
    69    33    34 1   
    70    33    37 1   
    71    33    89 1   
    72    34    35 1   
    73    34    90 1   
    74    34    91 1   
    75    35    36 1   
    76    35    92 1   
    77    35    93 1   
    78    36    94 1   
    79    36    95 1   
    80    36    96 1   
    81    37    43 1   
    82    37   113 2   
    83    38    43 2   
    84    39    40 1   
    85    39    43 1   
    86    39    97 1   
    87    40    41 1   
    88    40    98 1   
    89    40    99 1   
    90    41    42 2   
    91    41    44 1   
    92    44    45 1   
    93    44   100 1   
    94    45    46 1   
    95    45    52 1   
    96    45   101 1   
    97    46    47 ar  
    98    46    48 ar  
    99    47    49 ar  
   100    47   102 1   
   101    48    50 ar  
   102    48   103 1   
   103    49    51 ar  
   104    49   104 1   
   105    50    51 ar  
   106    50   105 1   
   107    51   106 1   
   108    52    53 2   
   109    52    54 1   
   110    54    55 1   
   111    54    56 1   
   112    55   107 1   
   113    55   108 1   
   114    55   109 1   
   115    56   110 1   
   116    56   111 1   
   117    56   112 1   
@<TRIPOS>SUBSTRUCTURE
     1 NHN         1 TEMP              0 ****  ****    0 ROOT
