@<TRIPOS>MOLECULE
NHN
  113   117     1     0     0
SMALL
abcg2


@<TRIPOS>ATOM
      1 C1         190.4860    -9.0650    47.8220 c3         1 NHN      -0.149400
      2 C2         189.3410    -9.4290    48.7790 c3         1 NHN      -0.021100
      3 C3         189.5160    -8.8390    50.1560 ca         1 NHN      -0.054300
      4 C4         190.1840    -9.5560    51.1520 ca         1 NHN      -0.178000
      5 C5         189.0380    -7.5610    50.4380 ca         1 NHN      -0.143000
      6 C6         190.3640    -9.0000    52.4180 ca         1 NHN       0.131100
      7 C7         189.2210    -7.0080    51.7020 ca         1 NHN      -0.078000
      8 C8         189.8800    -7.7190    52.6940 ca         1 NHN      -0.138000
      9 C9         191.7840    -9.7790    48.1490 c          1 NHN       0.601100
     10 O10        191.8100   -10.9830    48.4130 o          1 NHN      -0.624100
     11 O11        190.9750    -9.6360    53.4640 os         1 NHN      -0.353100
     12 C12        191.6960   -10.8470    53.2360 c3         1 NHN       0.160600
     13 C13        193.0320   -10.5610    52.5710 c3         1 NHN       0.120600
     14 O14        193.7460   -11.7890    52.5400 os         1 NHN      -0.462000
     15 N15        192.8960    -9.0200    48.0860 ns         1 NHN      -0.495900
     16 C16        194.2360    -9.5600    48.2310 c3         1 NHN       0.043700
     17 C17        195.1500    -9.1700    47.0560 c6         1 NHN      -0.072700
     18 C18        196.5590    -9.7450    47.2490 c6         1 NHN      -0.072400
     19 C19        194.5650    -9.6350    45.7180 c6         1 NHN      -0.072400
     20 C20        197.4800    -9.3820    46.0830 c6         1 NHN      -0.072900
     21 C21        195.4830    -9.2730    44.5480 c6         1 NHN      -0.072900
     22 C22        196.8930    -9.8320    44.7450 c6         1 NHN      -0.076400
     23 C23        194.8430    -9.0490    49.5380 c          1 NHN       0.595100
     24 O24        194.9750    -7.8370    49.7210 o          1 NHN      -0.620100
     25 N25        195.2570    -9.9530    50.4450 n          1 NHN      -0.404800
     26 C26        195.0080   -11.3990    50.4480 c5         1 NHN       0.069000
     27 C27        195.9670    -9.5120    51.6530 c5         1 NHN       0.033700
     28 C28        196.0230   -10.7690    52.5410 c5         1 NHN      -0.115400
     29 C29        195.0360   -11.7760    51.9300 c5         1 NHN       0.166300
     30 C30        197.3710    -9.0340    51.2620 c          1 NHN       0.593100
     31 O31        198.1490    -9.7890    50.6840 o          1 NHN      -0.614100
     32 N32        197.6710    -7.7680    51.5960 ns         1 NHN      -0.474900
     33 C33        198.9130    -7.1360    51.2210 c3         1 NHN       0.009700
     34 C34        198.7250    -6.0440    50.1470 c3         1 NHN      -0.087400
     35 C35        198.2250    -6.6060    48.8190 c3         1 NHN      -0.075400
     36 C36        198.0290    -5.5140    47.7720 c3         1 NHN      -0.086100
     37 C38        199.6250    -6.5630    52.4330 c          1 NHN       0.487100
     38 O39        201.0780    -4.6730    52.3010 o          1 NHN      -0.568100
     39 N40        201.9640    -6.6810    51.7170 ns         1 NHN      -0.479900
     40 C41        203.2110    -6.1200    51.2420 c3         1 NHN       0.027000
     41 C42        203.0030    -5.3670    49.9240 c          1 NHN       0.585100
     42 O43        202.1910    -5.7560    49.0880 o          1 NHN      -0.614100
     43 C44        200.9760    -5.8860    52.1470 c          1 NHN       0.507100
     44 N45        203.7830    -4.2920    49.7580 ns         1 NHN      -0.488900
     45 C46        203.7150    -3.4490    48.5800 c3         1 NHN       0.091000
     46 C47        202.4500    -2.6000    48.5670 ca         1 NHN      -0.115300
     47 C48        201.4740    -2.7960    47.5940 ca         1 NHN      -0.083500
     48 C49        202.2450    -1.6370    49.5550 ca         1 NHN      -0.083500
     49 C50        200.3060    -2.0400    47.6050 ca         1 NHN      -0.112500
     50 C51        201.0800    -0.8800    49.5670 ca         1 NHN      -0.112500
     51 C52        200.1070    -1.0800    48.5910 ca         1 NHN      -0.099000
     52 C53        204.9690    -2.5540    48.6000 c          1 NHN       0.598100
     53 O54        205.6180    -2.4580    49.6470 o          1 NHN      -0.625100
     54 N55        205.2760    -1.8800    47.4790 n          1 NHN      -0.397800
     55 C56        206.3520    -0.8960    47.4960 c3         1 NHN       0.084300
     56 C57        204.5340    -1.9480    46.2280 c3         1 NHN       0.084300
     57 H11        190.2160    -9.3760    46.8080 hc         1 NHN       0.061700
     58 H12        190.6330    -7.9840    47.8000 hc         1 NHN       0.061700
     59 H21        189.2680   -10.5150    48.8400 hc         1 NHN       0.061700
     60 H22        188.4090    -9.0610    48.3460 hc         1 NHN       0.061700
     61 H4         190.5550   -10.5430    50.9220 ha         1 NHN       0.131000
     62 H5         188.5190    -7.0010    49.6690 ha         1 NHN       0.111000
     63 H7         188.8440    -6.0160    51.9190 ha         1 NHN       0.115000
     64 H8         190.0260    -7.3030    53.6820 ha         1 NHN       0.127000
     65 H121       191.1080   -11.5570    52.6530 h1         1 NHN       0.067200
     66 H122       191.8620   -11.2710    54.2250 h1         1 NHN       0.067200
     67 H131       193.5650    -9.8080    53.1600 h1         1 NHN       0.042200
     68 H132       192.8780   -10.1680    51.5630 h1         1 NHN       0.042200
     69 H15        192.8040    -8.0360    47.8880 hn         1 NHN       0.327500
     70 H16        194.1290   -10.6390    48.2420 h1         1 NHN       0.091700
     71 H17        195.2240    -8.0760    47.0450 hc         1 NHN       0.064700
     72 H181       196.4840   -10.8360    47.3290 hc         1 NHN       0.045700
     73 H182       196.9950    -9.3920    48.1840 hc         1 NHN       0.045700
     74 H191       193.5760    -9.1980    45.5670 hc         1 NHN       0.045700
     75 H192       194.4310   -10.7230    45.7530 hc         1 NHN       0.045700
     76 H201       198.4650    -9.8290    46.2380 hc         1 NHN       0.041450
     77 H202       197.6240    -8.2970    46.0680 hc         1 NHN       0.041450
     78 H211       195.5370    -8.1820    44.4610 hc         1 NHN       0.041450
     79 H212       195.0530    -9.6430    43.6140 hc         1 NHN       0.041450
     80 H221       196.8520   -10.9270    44.7190 hc         1 NHN       0.039700
     81 H222       197.5420    -9.5200    43.9220 hc         1 NHN       0.039700
     82 H261       195.7980   -11.9280    49.9110 h1         1 NHN       0.076700
     83 H262       194.0480   -11.6380    49.9980 h1         1 NHN       0.076700
     84 H27        195.4100    -8.7030    52.1230 h1         1 NHN       0.078700
     85 H281       195.7880   -10.5460    53.5790 hc         1 NHN       0.076700
     86 H282       197.0220   -11.2010    52.5010 hc         1 NHN       0.076700
     87 H29        195.3920   -12.7960    52.0560 h1         1 NHN       0.093700
     88 H32        196.9520    -7.1910    52.0050 hn         1 NHN       0.333500
     89 H33        199.5520    -7.9180    50.8030 h1         1 NHN       0.100700
     90 H341       199.6820    -5.5430    49.9860 hc         1 NHN       0.062700
     91 H342       198.0280    -5.2930    50.5300 hc         1 NHN       0.062700
     92 H351       197.2840    -7.1350    48.9780 hc         1 NHN       0.049700
     93 H352       198.9440    -7.3450    48.4540 hc         1 NHN       0.049700
     94 H361       197.6770    -5.9360    46.8290 hc         1 NHN       0.032033
     95 H362       198.9640    -4.9820    47.5760 hc         1 NHN       0.032033
     96 H363       197.2930    -4.7790    48.1070 hc         1 NHN       0.032033
     97 H40        201.7920    -7.6640    51.5740 hn         1 NHN       0.332500
     98 H411       203.9050    -6.9410    51.0610 h1         1 NHN       0.075200
     99 H412       203.6430    -5.4660    51.9980 h1         1 NHN       0.075200
    100 H45        204.4150    -3.9790    50.4830 hn         1 NHN       0.348500
    101 H46        203.7180    -4.0910    47.7010 h1         1 NHN       0.082700
    102 H48        201.6240    -3.5490    46.8310 ha         1 NHN       0.119500
    103 H49        202.9960    -1.4810    50.3190 ha         1 NHN       0.119500
    104 H50        199.5520    -2.2080    46.8470 ha         1 NHN       0.115000
    105 H51        200.9310    -0.1340    50.3370 ha         1 NHN       0.115000
    106 H52        199.1970    -0.4920    48.6020 ha         1 NHN       0.113000
    107 H561       207.1160    -1.1700    46.7650 h1         1 NHN       0.047200
    108 H562       206.7930    -0.8550    48.4850 h1         1 NHN       0.047200
    109 H563       205.9530     0.0860    47.2310 h1         1 NHN       0.047200
    110 H571       205.2440    -1.8820    45.4040 h1         1 NHN       0.047200
    111 H572       203.8260    -1.1190    46.1490 h1         1 NHN       0.047200
    112 H573       203.9940    -2.8840    46.1330 h1         1 NHN       0.047200
    113 O37        199.1650    -6.5410    53.5490 o          1 NHN      -0.467100
@<TRIPOS>BOND
     1     1     2 1   
     2     1     9 1   
     3     1    57 1   
     4     1    58 1   
     5     2     3 1   
     6     2    59 1   
     7     2    60 1   
     8     3     4 ar  
     9     3     5 ar  
    10     4     6 ar  
    11     4    61 1   
    12     5     7 ar  
    13     5    62 1   
    14     6     8 ar  
    15     6    11 1   
    16     7     8 ar  
    17     7    63 1   
    18     8    64 1   
    19     9    10 2   
    20     9    15 1   
    21    11    12 1   
    22    12    13 1   
    23    12    65 1   
    24    12    66 1   
    25    13    14 1   
    26    13    67 1   
    27    13    68 1   
    28    14    29 1   
    29    15    16 1   
    30    15    69 1   
    31    16    17 1   
    32    16    23 1   
    33    16    70 1   
    34    17    18 1   
    35    17    19 1   
    36    17    71 1   
    37    18    20 1   
    38    18    72 1   
    39    18    73 1   
    40    19    21 1   
    41    19    74 1   
    42    19    75 1   
    43    20    22 1   
    44    20    76 1   
    45    20    77 1   
    46    21    22 1   
    47    21    78 1   
    48    21    79 1   
    49    22    80 1   
    50    22    81 1   
    51    23    24 2   
    52    23    25 1   
    53    25    26 1   
    54    25    27 1   
    55    26    29 1   
    56    26    82 1   
    57    26    83 1   
    58    27    28 1   
    59    27    30 1   
    60    27    84 1   
    61    28    29 1   
    62    28    85 1   
    63    28    86 1   
    64    29    87 1   
    65    30    31 2   
    66    30    32 1   
    67    32    33 1   
    68    32    88 1   
    69    33    34 1   
    70    33    37 1   
    71    33    89 1   
    72    34    35 1   
    73    34    90 1   
    74    34    91 1   
    75    35    36 1   
    76    35    92 1   
    77    35    93 1   
    78    36    94 1   
    79    36    95 1   
    80    36    96 1   
    81    37    43 1   
    82    37   113 2   
    83    38    43 2   
    84    39    40 1   
    85    39    43 1   
    86    39    97 1   
    87    40    41 1   
    88    40    98 1   
    89    40    99 1   
    90    41    42 2   
    91    41    44 1   
    92    44    45 1   
    93    44   100 1   
    94    45    46 1   
    95    45    52 1   
    96    45   101 1   
    97    46    47 ar  
    98    46    48 ar  
    99    47    49 ar  
   100    47   102 1   
   101    48    50 ar  
   102    48   103 1   
   103    49    51 ar  
   104    49   104 1   
   105    50    51 ar  
   106    50   105 1   
   107    51   106 1   
   108    52    53 2   
   109    52    54 1   
   110    54    55 1   
   111    54    56 1   
   112    55   107 1   
   113    55   108 1   
   114    55   109 1   
   115    56   110 1   
   116    56   111 1   
   117    56   112 1   
@<TRIPOS>SUBSTRUCTURE
     1 NHN         1 TEMP              0 ****  ****    0 ROOT
