@<TRIPOS>MOLECULE
NHO
   86    90     1     0     0
SMALL
No Charge or Current Charge


@<TRIPOS>ATOM
      1 PA           0.0720    -0.3100    -3.6520 p5         1 NHO       1.496800
      2 O1A         -0.9420     0.7610    -3.4110 o          1 NHO      -0.849000
      3 O2A         -0.2400    -1.0130    -4.9300 o          1 NHO      -0.849000
      4 O5           1.5660     0.2970    -3.6550 os         1 NHO      -0.587400
      5 C5           1.8270     1.7030    -3.5230 c3         1 NHO       0.243600
      6 C4           1.4930     2.2750    -2.1010 c5         1 NHO       0.119300
      7 O4           1.4820     1.2450    -1.0710 os         1 NHO      -0.443000
      8 C3           2.5480     3.3120    -1.6010 c5         1 NHO       0.108300
      9 O3           2.0580     4.1550    -0.5510 oh         1 NHO      -0.695000
     10 C2           3.6330     2.3360    -1.0610 c5         1 NHO       0.072300
     11 O2           4.5680     3.0100    -0.1940 oh         1 NHO      -0.700000
     12 C1           2.7200     1.2920    -0.3290 c5         1 NHO       0.319300
     13 N9A          3.2290    -0.0630    -0.1530 na         1 NHO      -0.298300
     14 C8A          3.8910    -0.8200    -1.1250 cc         1 NHO       0.463700
     15 N7A          4.3860    -1.9630    -0.6040 nd         1 NHO      -0.547100
     16 C5A          3.9650    -1.9160     0.7290 ca         1 NHO      -0.076600
     17 C6A          4.1620    -2.8510     1.7660 ca         1 NHO       0.430900
     18 N6A          4.8450    -4.0150     1.5930 nv         1 NHO      -1.083900
     19 N1A          3.6720    -2.6350     2.9970 nb         1 NHO      -0.316000
     20 C2A          2.9920    -1.4760     3.1730 ca         1 NHO       0.153900
     21 N3A          2.7610    -0.5210     2.2390 nb         1 NHO      -0.204000
     22 C4A          3.2600    -0.7740     1.0120 ca         1 NHO       0.120500
     23 OPP          0.1410    -1.2270    -2.3740 os         1 NHO      -0.727800
     24 PN           0.7650    -2.6440    -2.6690 p5         1 NHO       1.453800
     25 O1N          2.0840    -2.6080    -3.3660 o          1 NHO      -0.826500
     26 O2N         -0.1980    -3.5960    -3.2990 o          1 NHO      -0.826500
     27 O5B          1.0010    -3.0650    -1.1320 os         1 NHO      -0.588400
     28 C5B         -0.1020    -3.5970    -0.3930 c3         1 NHO       0.223600
     29 C4B          0.2800    -3.6630     1.1180 c5         1 NHO       0.144300
     30 O4B          0.1370    -2.3720     1.7580 os         1 NHO      -0.393000
     31 C3B         -0.6730    -4.5500     1.9710 c5         1 NHO       0.110300
     32 O3B         -0.1530    -4.8320     3.2760 oh         1 NHO      -0.699000
     33 C2B         -1.9110    -3.6060     2.0830 c5         1 NHO       0.070300
     34 O2B         -2.6930    -3.9160     3.2560 oh         1 NHO      -0.714000
     35 C1B         -1.2540    -2.1680     2.1180 c5         1 NHO       0.288300
     36 N1N         -1.8730    -1.1400     1.2540 na         1 NHO       0.009300
     37 C2N         -3.2660    -1.0240     1.1160 ca         1 NHO      -0.078000
     38 C3N         -3.8960    -0.1570     0.1840 ca         1 NHO      -0.147600
     39 C7N         -5.4080    -0.2150     0.0530 c          1 NHO       0.607700
     40 O7N         -6.0100    -0.0260    -0.9880 o          1 NHO      -0.618100
     41 N7N         -6.1140    -0.5730     1.1450 nt         1 NHO      -0.594000
     42 C4N         -3.0790     0.7100    -0.5990 ca         1 NHO       0.021700
     43 C5N         -1.6890     0.6670    -0.3890 ca         1 NHO      -0.105000
     44 C6N         -1.1100    -0.2280     0.5180 ca         1 NHO       0.039700
     45 O5R         -3.3890     1.2640    -2.9780 oh         1 NHO      -0.675000
     46 C5R         -3.6220     1.7290    -1.6210 c3         1 NHO       0.136600
     47 C4R         -3.0450     3.1600    -1.3650 c          1 NHO       0.519100
     48 O4R         -2.0470     3.5800    -1.9390 o          1 NHO      -0.486100
     49 C3R         -3.8050     4.0500    -0.3670 c3         1 NHO      -0.213400
     50 C2R         -3.0360     4.2410     0.9680 c3         1 NHO       0.056500
     51 N1R         -3.2910     3.0610     1.8700 n8         1 NHO      -1.013200
     52 C1R         -3.3140     5.6770     1.5960 c          1 NHO       0.738000
     53 O1R         -2.3750     6.4530     1.7190 o          1 NHO      -0.743000
     54 OR          -4.4480     5.9360     1.9860 o          1 NHO      -0.743000
     55 H5'1         2.8850     1.8880    -3.7450 h1         1 NHO       0.014200
     56 H5'2         1.2530     2.2680    -4.2680 h1         1 NHO       0.014200
     57 H4           0.4970     2.7330    -2.1610 h1         1 NHO       0.129700
     58 H3           2.9340     3.9250    -2.4280 h1         1 NHO       0.043700
     59 H10          2.8310     4.2650     0.0540 ho         1 NHO       0.512000
     60 H2           4.1690     1.8560    -1.8920 h1         1 NHO       0.059700
     61 H11          5.3470     3.2760    -0.7390 ho         1 NHO       0.498000
     62 H1           2.5030     1.6680     0.6790 h2         1 NHO       0.111700
     63 H8A          3.9930    -0.4880    -2.1520 h5         1 NHO       0.119800
     64 H6A1         5.0310    -4.2980     0.6340 hn         1 NHO       0.495500
     65 H6A2         4.7140    -4.7580     2.2740 hn         1 NHO       0.495500
     66 H2A          2.5920    -1.2900     4.1680 h5         1 NHO       0.029100
     67 H5A1        -0.3210    -4.6160    -0.7390 h1         1 NHO       0.023200
     68 H5A2        -1.0060    -2.9920    -0.5400 h1         1 NHO       0.023200
     69 H4B          1.3210    -4.0030     1.1990 h1         1 NHO       0.118700
     70 H3B         -0.9260    -5.4860     1.4510 h1         1 NHO       0.061700
     71 H9          -0.9090    -4.6170     3.8770 ho         1 NHO       0.507000
     72 H2B         -2.5300    -3.7050     1.1780 h1         1 NHO       0.074700
     73 H5          -3.3650    -4.5970     3.0040 ho         1 NHO       0.517000
     74 H1B         -1.3010    -1.7600     3.1350 h2         1 NHO       0.123700
     75 H2N         -3.8570    -1.7080     1.7260 h4         1 NHO       0.162000
     76 H7N1        -5.6550    -0.7080     2.0320 hn         1 NHO       0.349000
     77 H7N2        -7.1180    -0.6390     1.0750 hn         1 NHO       0.349000
     78 H5N         -1.0310     1.3260    -0.9450 ha         1 NHO       0.232000
     79 H6N         -0.0250    -0.2520     0.6380 h4         1 NHO       0.230000
     80 H5R         -4.6980     1.8560    -1.4760 h1         1 NHO       0.084700
     81 H3R1        -4.8010     3.6430    -0.1560 hc         1 NHO       0.053700
     82 H3R2        -3.9150     5.0360    -0.8340 hc         1 NHO       0.053700
     83 H2R         -1.9620     4.2390     0.7300 h1         1 NHO       0.063700
     84 H1R1        -4.2700     3.0860     2.1810 hn         1 NHO       0.395500
     85 H1R2        -3.2050     2.1820     1.3530 hn         1 NHO       0.395500
     86 H12         -2.3890     1.1150    -3.1040 ho         1 NHO       0.555000
@<TRIPOS>BOND
     1     1     2 1   
     2     1     3 1   
     3     1     4 1   
     4     1    23 1   
     5     4     5 1   
     6     5     6 1   
     7     5    55 1   
     8     5    56 1   
     9     6     7 1   
    10     6     8 1   
    11     6    57 1   
    12     7    12 1   
    13     8     9 1   
    14     8    10 1   
    15     8    58 1   
    16     9    59 1   
    17    10    11 1   
    18    10    12 1   
    19    10    60 1   
    20    11    61 1   
    21    12    13 1   
    22    12    62 1   
    23    13    14 1   
    24    13    22 1   
    25    14    15 2   
    26    14    63 1   
    27    15    16 1   
    28    16    17 ar  
    29    16    22 ar  
    30    17    18 1   
    31    17    19 ar  
    32    18    64 1   
    33    18    65 1   
    34    19    20 ar  
    35    20    21 ar  
    36    20    66 1   
    37    21    22 ar  
    38    23    24 1   
    39    24    25 1   
    40    24    26 1   
    41    24    27 1   
    42    27    28 1   
    43    28    29 1   
    44    28    67 1   
    45    28    68 1   
    46    29    30 1   
    47    29    31 1   
    48    29    69 1   
    49    30    35 1   
    50    31    32 1   
    51    31    33 1   
    52    31    70 1   
    53    32    71 1   
    54    33    34 1   
    55    33    35 1   
    56    33    72 1   
    57    34    73 1   
    58    35    36 1   
    59    35    74 1   
    60    36    37 1   
    61    36    44 2   
    62    37    38 ar  
    63    37    75 1   
    64    38    39 1   
    65    38    42 ar  
    66    39    40 2   
    67    39    41 1   
    68    41    76 1   
    69    41    77 1   
    70    42    43 ar  
    71    42    46 1   
    72    43    44 ar  
    73    43    78 1   
    74    44    79 1   
    75    45    46 1   
    76    45    86 1   
    77    46    47 1   
    78    46    80 1   
    79    47    48 2   
    80    47    49 1   
    81    49    50 1   
    82    49    81 1   
    83    49    82 1   
    84    50    51 1   
    85    50    52 1   
    86    50    83 1   
    87    51    84 1   
    88    51    85 1   
    89    52    53 1   
    90    52    54 1   
@<TRIPOS>SUBSTRUCTURE
     1 NHO         1 TEMP              0 ****  ****    0 ROOT
