@<TRIPOS>MOLECULE
NHO
   86    90     1     0     0
SMALL
abcg2


@<TRIPOS>ATOM
      1 PA           0.2530    -0.2790    -4.1610 p5         1 NHO       1.496800
      2 O1A         -0.8030     0.7780    -3.9270 o          1 NHO      -0.849000
      3 O2A          0.3230    -0.9910    -5.4710 o          1 NHO      -0.849000
      4 O5           1.7270     0.3510    -3.8510 os         1 NHO      -0.587400
      5 C5           1.9820     1.6990    -3.5490 c3         1 NHO       0.243600
      6 C4           1.3600     2.1770    -2.2350 c5         1 NHO       0.119300
      7 O4           1.2680     1.1010    -1.3020 os         1 NHO      -0.443000
      8 C3           2.2320     3.2280    -1.5590 c5         1 NHO       0.108300
      9 O3           1.4290     4.0380    -0.7440 oh         1 NHO      -0.695000
     10 C2           3.1530     2.3380    -0.7140 c5         1 NHO       0.072300
     11 O2           3.7240     2.9660     0.3950 oh         1 NHO      -0.700000
     12 C1           2.1750     1.2580    -0.2530 c5         1 NHO       0.319300
     13 N9A          2.7800    -0.0140     0.0380 na         1 NHO      -0.298300
     14 C8A          3.3890    -0.8710    -0.8430 cc         1 NHO       0.463700
     15 N7A          3.8480    -1.9440    -0.2760 nd         1 NHO      -0.547100
     16 C5A          3.5120    -1.8080     1.0450 ca         1 NHO      -0.076600
     17 C6A          3.6590    -2.6510     2.1580 ca         1 NHO       0.430900
     18 N6A          4.2690    -3.8410     2.0850 nv         1 NHO      -1.083900
     19 N1A          3.1730    -2.2350     3.3310 nb         1 NHO      -0.316000
     20 C2A          2.5560    -1.0580     3.3930 ca         1 NHO       0.153900
     21 N3A          2.3420    -0.1890     2.4190 nb         1 NHO      -0.204000
     22 C4A          2.8380    -0.6180     1.2620 ca         1 NHO       0.120500
     23 OPP          0.1040    -1.3630    -2.9460 os         1 NHO      -0.727800
     24 PN           0.8720    -2.8240    -2.8560 p5         1 NHO       1.453800
     25 O1N          2.2830    -2.6880    -3.3190 o          1 NHO      -0.826500
     26 O2N         -0.0420    -3.8780    -3.3980 o          1 NHO      -0.826500
     27 O5B          0.9150    -2.9550    -1.2130 os         1 NHO      -0.588400
     28 C5B         -0.0230    -3.7540    -0.5360 c3         1 NHO       0.223600
     29 C4B          0.2510    -3.6730     0.9580 c5         1 NHO       0.144300
     30 O4B          0.1560    -2.3330     1.4700 os         1 NHO      -0.393000
     31 C3B         -0.7800    -4.4340     1.7760 c5         1 NHO       0.110300
     32 O3B         -0.2390    -4.7120     3.0350 oh         1 NHO      -0.699000
     33 C2B         -1.9090    -3.3940     1.8710 c5         1 NHO       0.070300
     34 O2B         -2.7090    -3.4980     3.0100 oh         1 NHO      -0.714000
     35 C1B         -1.1170    -2.0700     1.9000 c5         1 NHO       0.288300
     36 N1N         -1.7660    -1.0670     0.9830 na         1 NHO       0.009300
     37 C2N         -3.0300    -0.6980     1.2320 ca         1 NHO      -0.078000
     38 C3N         -3.7200     0.1220     0.3650 ca         1 NHO      -0.147600
     39 C7N         -5.1820     0.3530     0.6500 c          1 NHO       0.607700
     40 O7N         -6.0250    -0.1620    -0.0660 o          1 NHO      -0.618100
     41 N7N         -5.4150     1.1110     1.7210 nt         1 NHO      -0.594000
     42 C4N         -3.0670     0.6020    -0.7760 ca         1 NHO       0.021700
     43 C5N         -1.7400     0.2500    -0.9540 ca         1 NHO      -0.105000
     44 C6N         -1.1070    -0.5920    -0.0760 ca         1 NHO       0.039700
     45 O5R         -3.3720     1.1460    -3.1000 oh         1 NHO      -0.675000
     46 C5R         -3.6520     1.5510    -1.8090 c3         1 NHO       0.136600
     47 C4R         -3.1220     2.9590    -1.4670 c          1 NHO       0.519100
     48 O4R         -2.3460     3.5130    -2.2090 o          1 NHO      -0.486100
     49 C3R         -3.6070     3.5590    -0.1750 c3         1 NHO      -0.213400
     50 C2R         -2.4940     3.9740     0.8320 c3         1 NHO       0.056500
     51 N1R         -1.3630     3.0790     0.9770 n8         1 NHO      -1.013200
     52 C1R         -3.1700     4.1210     2.2160 c          1 NHO       0.738000
     53 O1R         -3.4390     5.2600     2.6150 o          1 NHO      -0.743000
     54 OR          -3.4890     3.0410     2.7790 o          1 NHO      -0.743000
     55 H5'1         3.0720     1.7830    -3.5020 h1         1 NHO       0.014200
     56 H5'2         1.6520     2.3740    -4.3460 h1         1 NHO       0.014200
     57 H4           0.3530     2.5540    -2.4140 h1         1 NHO       0.129700
     58 H3           2.7980     3.8220    -2.2900 h1         1 NHO       0.043700
     59 H10          1.9850     4.3990    -0.0420 ho         1 NHO       0.512000
     60 H2           3.9170     1.8910    -1.3620 h1         1 NHO       0.059700
     61 H11          4.5280     3.4200     0.1170 ho         1 NHO       0.498000
     62 H1           1.6750     1.5770     0.6700 h2         1 NHO       0.111700
     63 H8A          3.4220    -0.6690    -1.9030 h5         1 NHO       0.119800
     64 H6A1         4.5590    -4.2160     1.1980 hn         1 NHO       0.495500
     65 H6A2         4.2780    -4.4520     2.8840 hn         1 NHO       0.495500
     66 H2A          2.1780    -0.7800     4.3710 h5         1 NHO       0.029100
     67 H5A1         0.0600    -4.8070    -0.8250 h1         1 NHO       0.023200
     68 H5A2        -1.0520    -3.4530    -0.7660 h1         1 NHO       0.023200
     69 H4B          1.2680    -4.0130     1.1630 h1         1 NHO       0.118700
     70 H3B         -1.1250    -5.3410     1.2640 h1         1 NHO       0.061700
     71 H9          -0.9680    -4.8750     3.6460 ho         1 NHO       0.507000
     72 H2B         -2.5120    -3.4470     0.9580 h1         1 NHO       0.074700
     73 H5          -3.4380    -4.1010     2.8270 ho         1 NHO       0.517000
     74 H1B         -1.1130    -1.6070     2.8900 h2         1 NHO       0.123700
     75 H2N         -3.4890    -1.1060     2.1230 h4         1 NHO       0.162000
     76 H7N1        -4.6800     1.7170     2.1110 hn         1 NHO       0.349000
     77 H7N2        -6.3690     1.3280     1.9700 hn         1 NHO       0.349000
     78 H5N         -1.1710     0.6180    -1.7910 ha         1 NHO       0.232000
     79 H6N         -0.0850    -0.9000    -0.2190 h4         1 NHO       0.230000
     80 H5R         -4.7390     1.5910    -1.7040 h1         1 NHO       0.084700
     81 H3R1        -4.3080     2.8760     0.3000 hc         1 NHO       0.053700
     82 H3R2        -4.1880     4.4500    -0.4330 hc         1 NHO       0.053700
     83 H2R         -2.1010     4.9400     0.5130 h1         1 NHO       0.063700
     84 H1R1        -1.6620     2.1760     1.3100 hn         1 NHO       0.395500
     85 H1R2        -0.8450     2.9670     0.1170 hn         1 NHO       0.395500
     86 H12         -2.4090     1.1010    -3.2950 ho         1 NHO       0.555000
@<TRIPOS>BOND
     1     1     2 1   
     2     1     3 1   
     3     1     4 1   
     4     1    23 1   
     5     4     5 1   
     6     5     6 1   
     7     5    55 1   
     8     5    56 1   
     9     6     7 1   
    10     6     8 1   
    11     6    57 1   
    12     7    12 1   
    13     8     9 1   
    14     8    10 1   
    15     8    58 1   
    16     9    59 1   
    17    10    11 1   
    18    10    12 1   
    19    10    60 1   
    20    11    61 1   
    21    12    13 1   
    22    12    62 1   
    23    13    14 1   
    24    13    22 1   
    25    14    15 2   
    26    14    63 1   
    27    15    16 1   
    28    16    17 ar  
    29    16    22 ar  
    30    17    18 1   
    31    17    19 ar  
    32    18    64 1   
    33    18    65 1   
    34    19    20 ar  
    35    20    21 ar  
    36    20    66 1   
    37    21    22 ar  
    38    23    24 1   
    39    24    25 1   
    40    24    26 1   
    41    24    27 1   
    42    27    28 1   
    43    28    29 1   
    44    28    67 1   
    45    28    68 1   
    46    29    30 1   
    47    29    31 1   
    48    29    69 1   
    49    30    35 1   
    50    31    32 1   
    51    31    33 1   
    52    31    70 1   
    53    32    71 1   
    54    33    34 1   
    55    33    35 1   
    56    33    72 1   
    57    34    73 1   
    58    35    36 1   
    59    35    74 1   
    60    36    37 1   
    61    36    44 2   
    62    37    38 ar  
    63    37    75 1   
    64    38    39 1   
    65    38    42 ar  
    66    39    40 2   
    67    39    41 1   
    68    41    76 1   
    69    41    77 1   
    70    42    43 ar  
    71    42    46 1   
    72    43    44 ar  
    73    43    78 1   
    74    44    79 1   
    75    45    46 1   
    76    45    86 1   
    77    46    47 1   
    78    46    80 1   
    79    47    48 2   
    80    47    49 1   
    81    49    50 1   
    82    49    81 1   
    83    49    82 1   
    84    50    51 1   
    85    50    52 1   
    86    50    83 1   
    87    51    84 1   
    88    51    85 1   
    89    52    53 1   
    90    52    54 1   
@<TRIPOS>SUBSTRUCTURE
     1 NHO         1 TEMP              0 ****  ****    0 ROOT
