@<TRIPOS>MOLECULE
NHR
   54    56     1     0     0
SMALL
bcc


@<TRIPOS>ATOM
      1 N1          37.2040    22.5180     6.5700 nb         1 NHR      -0.785000
      2 C2          35.9420    22.1790     6.6970 ca         1 NHR       0.910900
      3 NA2         35.3540    22.3130     7.9040 nv         1 NHR      -0.964500
      4 N3          35.1480    21.6670     5.7230 nb         1 NHR      -0.833000
      5 C4          35.6760    21.4760     4.5540 ca         1 NHR       0.724600
      6 O4          34.8470    20.9840     3.6430 oh         1 NHR      -0.619300
      7 C4A         37.0470    21.7730     4.2690 ca         1 NHR      -0.357600
      8 C8A         37.7650    22.3160     5.3580 ca         1 NHR       0.468600
      9 C8          39.1180    22.6560     5.1490 ca         1 NHR      -0.195300
     10 C7          39.7080    22.4500     3.9300 ca         1 NHR      -0.061000
     11 C9          39.6890    21.6150     1.5340 c3         1 NHR      -0.020100
     12 C10         40.2160    20.1720     1.4440 c3         1 NHR      -0.151400
     13 CA1         40.7980    19.8300     0.0410 c          1 NHR       0.936600
     14 OA1         40.3060    20.4390    -0.9280 o          1 NHR      -0.835300
     15 C6          39.0030    21.8950     2.8410 ca         1 NHR      -0.044300
     16 C5          37.6810    21.5700     3.0290 ca         1 NHR      -0.127000
     17 C16         43.2620    20.2950     3.7100 ca         1 NHR      -0.106500
     18 C11         42.8570    19.5150     4.7950 ca         1 NHR      -0.144600
     19 C17         43.6980    19.3610     6.0230 c          1 NHR       0.672700
     20 O17         43.1800    19.2710     7.1310 o          1 NHR      -0.647100
     21 C12         41.5970    18.9270     4.7570 ca         1 NHR      -0.106500
     22 C13         40.7720    19.1010     3.6560 ca         1 NHR      -0.149500
     23 C14         41.1630    19.8830     2.5730 ca         1 NHR      -0.029300
     24 C15         42.4250    20.4740     2.6220 ca         1 NHR      -0.149500
     25 N           45.0210    19.3390     5.8230 ns         1 NHR      -0.501900
     26 CA          45.9980    19.4420     6.8900 c3         1 NHR      -0.016300
     27 C           45.9320    18.2500     7.8870 c          1 NHR       0.942600
     28 O           46.2750    18.4970     9.0590 o          1 NHR      -0.857800
     29 CB          45.9890    20.8270     7.5440 c3         1 NHR      -0.047400
     30 CG          45.9220    21.9760     6.5390 c3         1 NHR      -0.201400
     31 CD          47.0090    21.9090     5.4520 c          1 NHR       0.920600
     32 OE1         46.6410    21.9680     4.2580 o          1 NHR      -0.869300
     33 OE2         48.1880    21.8050     5.8540 o          1 NHR      -0.869300
     34 OT          45.6110    17.1440     7.4160 o          1 NHR      -0.857800
     35 OA2         41.6690    18.9430     0.0060 o          1 NHR      -0.835300
     36 HNA1        34.3520    22.2630     7.9610 hn         1 NHR       0.423300
     37 HNA2        35.8240    22.8550     8.6080 hn         1 NHR       0.423300
     38 H4O         35.2680    20.8700     2.7830 ho         1 NHR       0.448000
     39 H8          39.6780    23.0830     5.9710 ha         1 NHR       0.153000
     40 H7          40.7490    22.7180     3.7950 ha         1 NHR       0.160000
     41 H91         40.5140    22.3190     1.3900 hc         1 NHR       0.052200
     42 H92         38.9930    21.7740     0.7100 hc         1 NHR       0.052200
     43 H101        39.3450    19.5130     1.5650 hc         1 NHR       0.023700
     44 H5          37.1410    21.1450     2.1890 ha         1 NHR       0.116000
     45 H161        44.2200    20.8030     3.7220 ha         1 NHR       0.149500
     46 H121        41.2570    18.3280     5.5930 ha         1 NHR       0.149500
     47 H131        39.7930    18.6350     3.6500 ha         1 NHR       0.112500
     48 H151        42.7540    21.1050     1.8040 ha         1 NHR       0.112500
     49 HN          45.3620    19.4190     4.8800 hn         1 NHR       0.311500
     50 HA          46.9640    19.3380     6.3840 h1         1 NHR       0.049700
     51 HB1         45.1520    20.9110     8.2400 hc         1 NHR       0.031200
     52 HB2         46.8930    20.9220     8.1450 hc         1 NHR       0.031200
     53 HG1         44.9310    22.0210     6.0800 hc         1 NHR       0.001700
     54 HG2         46.0410    22.9150     7.0920 hc         1 NHR       0.001700
@<TRIPOS>BOND
     1     1     2 ar  
     2     1     8 ar  
     3     2     3 1   
     4     2     4 ar  
     5     3    36 1   
     6     3    37 1   
     7     4     5 ar  
     8     5     6 1   
     9     5     7 ar  
    10     6    38 1   
    11     7     8 ar  
    12     7    16 ar  
    13     8     9 ar  
    14     9    10 ar  
    15     9    39 1   
    16    10    15 ar  
    17    10    40 1   
    18    11    12 1   
    19    11    15 1   
    20    11    41 1   
    21    11    42 1   
    22    12    13 1   
    23    12    23 1   
    24    12    43 1   
    25    13    14 1   
    26    13    35 1   
    27    15    16 ar  
    28    16    44 1   
    29    17    18 ar  
    30    17    24 ar  
    31    17    45 1   
    32    18    19 1   
    33    18    21 ar  
    34    19    20 2   
    35    19    25 1   
    36    21    22 ar  
    37    21    46 1   
    38    22    23 ar  
    39    22    47 1   
    40    23    24 ar  
    41    24    48 1   
    42    25    26 1   
    43    25    49 1   
    44    26    27 1   
    45    26    29 1   
    46    26    50 1   
    47    27    28 1   
    48    27    34 1   
    49    29    30 1   
    50    29    51 1   
    51    29    52 1   
    52    30    31 1   
    53    30    53 1   
    54    30    54 1   
    55    31    32 1   
    56    31    33 1   
@<TRIPOS>SUBSTRUCTURE
     1 NHR         1 TEMP              0 ****  ****    0 ROOT
