@<TRIPOS>MOLECULE
NHR
   54    56     1     0     0
SMALL
No Charge or Current Charge


@<TRIPOS>ATOM
      1 N1          37.4680    23.2720     6.2680 nb         1 NHR      -0.259000
      2 C2          36.2220    22.9340     6.6270 ca         1 NHR       0.384900
      3 NA2         35.7750    23.4460     7.7980 nv         1 NHR      -1.074900
      4 N3          35.3630    22.1550     5.9660 nb         1 NHR      -0.307000
      5 C4          35.8070    21.6510     4.8050 ca         1 NHR       0.396300
      6 O4          34.9410    20.8550     4.1220 oh         1 NHR      -0.658300
      7 C4A         37.1040    21.9300     4.3120 ca         1 NHR      -0.227000
      8 C8A         37.9260    22.7720     5.1020 ca         1 NHR       0.075000
      9 C8          39.2230    23.0780     4.6550 ca         1 NHR      -0.112000
     10 C7          39.7060    22.5610     3.4420 ca         1 NHR      -0.043000
     11 C9          39.4220    21.1530     1.3410 c3         1 NHR      -0.020100
     12 C10         39.8950    19.6820     1.4810 c3         1 NHR      -0.151400
     13 CA1         40.3180    19.0870     0.1140 c          1 NHR       0.726000
     14 OA1         41.2480    19.5970    -0.4950 o          1 NHR      -0.730000
     15 C6          38.8950    21.7250     2.6530 ca         1 NHR      -0.044300
     16 C5          37.5940    21.4100     3.0900 ca         1 NHR      -0.109000
     17 C16         43.1680    20.1130     3.4860 ca         1 NHR      -0.088500
     18 C11         42.9960    19.1850     4.5430 ca         1 NHR      -0.144600
     19 C17         44.0370    18.9890     5.6310 c          1 NHR       0.605700
     20 O17         43.8690    18.1990     6.5520 o          1 NHR      -0.647100
     21 C12         41.8050    18.4240     4.5740 ca         1 NHR      -0.088500
     22 C13         40.8200    18.5840     3.5850 ca         1 NHR      -0.131500
     23 C14         40.9940    19.5070     2.5380 ca         1 NHR      -0.029300
     24 C15         42.1790    20.2680     2.5000 ca         1 NHR      -0.131500
     25 N           45.1870    19.7470     5.5250 ns         1 NHR      -0.434900
     26 CA          46.3070    19.7730     6.4990 c3         1 NHR      -0.016300
     27 C           46.9840    18.3600     6.6310 c          1 NHR       0.732000
     28 O           47.1060    17.8440     7.7350 o          1 NHR      -0.752500
     29 CB          45.9050    20.4280     7.8550 c3         1 NHR      -0.047400
     30 CG          45.2900    21.8530     7.7550 c3         1 NHR      -0.201400
     31 CD          46.2760    22.8510     7.1130 c          1 NHR       0.710000
     32 OE1         46.2160    23.0370     5.9070 o          1 NHR      -0.764000
     33 OE2         47.0950    23.3980     7.8360 o          1 NHR      -0.764000
     34 OT          47.4370    17.8470     5.6150 o          1 NHR      -0.752500
     35 OA2         39.7000    18.1180    -0.3050 o          1 NHR      -0.730000
     36 HNA1        34.7790    23.3970     7.9980 hn         1 NHR       0.478500
     37 HNA2        36.2950    24.2070     8.2280 hn         1 NHR       0.478500
     38 H4O         35.4080    20.5680     3.3130 ho         1 NHR       0.487000
     39 H8          39.8630    23.7210     5.2550 ha         1 NHR       0.135000
     40 H7          40.7140    22.8070     3.1180 ha         1 NHR       0.142000
     41 H91         40.2390    21.7740     0.9540 hc         1 NHR       0.052200
     42 H92         38.6330    21.1970     0.5790 hc         1 NHR       0.052200
     43 H101        39.0210    19.1090     1.8140 hc         1 NHR       0.023700
     44 H5          36.9830    20.7600     2.4690 ha         1 NHR       0.098000
     45 H161        44.0620    20.7270     3.4120 ha         1 NHR       0.131500
     46 H121        41.6380    17.7030     5.3710 ha         1 NHR       0.131500
     47 H131        39.9130    17.9860     3.6390 ha         1 NHR       0.094500
     48 H151        42.3400    20.9860     1.7010 ha         1 NHR       0.094500
     49 HN          45.2400    20.3730     4.7330 hn         1 NHR       0.311500
     50 HA          47.0830    20.4100     6.0570 h1         1 NHR       0.049700
     51 HB1         45.1900    19.7780     8.3740 hc         1 NHR       0.031200
     52 HB2         46.7940    20.4800     8.4960 hc         1 NHR       0.031200
     53 HG1         44.3770    21.7620     7.1540 hc         1 NHR       0.001700
     54 HG2         45.0900    22.1400     8.7950 hc         1 NHR       0.001700
@<TRIPOS>BOND
     1     1     2 ar  
     2     1     8 ar  
     3     2     3 1   
     4     2     4 ar  
     5     3    36 1   
     6     3    37 1   
     7     4     5 ar  
     8     5     6 1   
     9     5     7 ar  
    10     6    38 1   
    11     7     8 ar  
    12     7    16 ar  
    13     8     9 ar  
    14     9    10 ar  
    15     9    39 1   
    16    10    15 ar  
    17    10    40 1   
    18    11    12 1   
    19    11    15 1   
    20    11    41 1   
    21    11    42 1   
    22    12    13 1   
    23    12    23 1   
    24    12    43 1   
    25    13    14 1   
    26    13    35 1   
    27    15    16 ar  
    28    16    44 1   
    29    17    18 ar  
    30    17    24 ar  
    31    17    45 1   
    32    18    19 1   
    33    18    21 ar  
    34    19    20 2   
    35    19    25 1   
    36    21    22 ar  
    37    21    46 1   
    38    22    23 ar  
    39    22    47 1   
    40    23    24 ar  
    41    24    48 1   
    42    25    26 1   
    43    25    49 1   
    44    26    27 1   
    45    26    29 1   
    46    26    50 1   
    47    27    28 1   
    48    27    34 1   
    49    29    30 1   
    50    29    51 1   
    51    29    52 1   
    52    30    31 1   
    53    30    53 1   
    54    30    54 1   
    55    31    32 1   
    56    31    33 1   
@<TRIPOS>SUBSTRUCTURE
     1 NHR         1 TEMP              0 ****  ****    0 ROOT
