@<TRIPOS>MOLECULE
NHS
   54    56     1     0     0
SMALL
No Charge or Current Charge


@<TRIPOS>ATOM
      1 N1          -3.2250     0.3310    -4.2180 nc         1 NHS      -0.713100
      2 C2          -4.0060    -0.2910    -3.3690 cd         1 NHS       0.693800
      3 NA2         -5.2890     0.0070    -3.4850 nv         1 NHS      -1.055200
      4 N3          -3.6820    -1.1700    -2.4100 ns         1 NHS      -0.454400
      5 C4          -2.4150    -1.5660    -2.1720 c          1 NHS       0.586600
      6 O4          -2.1390    -2.3770    -1.3010 o          1 NHS      -0.512000
      7 C4A         -1.4160    -0.9300    -3.0680 ca         1 NHS      -0.207600
      8 C5          -0.0420    -1.2280    -2.9490 ca         1 NHS      -0.022000
      9 C6           0.8950    -0.6160    -3.8020 ca         1 NHS      -0.075300
     10 C7           0.4440     0.2930    -4.7740 ca         1 NHS      -0.076000
     11 C8          -0.9250     0.5860    -4.8890 ca         1 NHS      -0.137000
     12 C8A         -1.8730    -0.0170    -4.0420 ca         1 NHS       0.190400
     13 C9           2.3830    -0.9220    -3.6650 c3         1 NHS      -0.013100
     14 C10          3.1460     0.1910    -2.8990 c3         1 NHS      -0.152400
     15 C11          1.4690     0.9680     1.0780 ca         1 NHS      -0.134600
     16 C12          1.6360     2.0080     0.1360 ca         1 NHS      -0.086500
     17 C13          2.1800     1.7530    -1.1340 ca         1 NHS      -0.131500
     18 C14          2.5740     0.4520    -1.4990 ca         1 NHS      -0.033300
     19 C15          2.4120    -0.5890    -0.5640 ca         1 NHS      -0.131500
     20 C16          1.8670    -0.3390     0.7070 ca         1 NHS      -0.086500
     21 O            0.5470     2.4170     2.7620 o          1 NHS      -0.658100
     22 N            0.7440     0.2150     3.3110 ns         1 NHS      -0.433900
     23 CA           0.1780     0.2760     4.6820 c3         1 NHS      -0.042300
     24 CB          -1.3170    -0.1450     4.7220 c3         1 NHS      -0.055400
     25 CG          -2.2710     0.7630     3.9030 c3         1 NHS      -0.199400
     26 CD          -3.7340     0.3370     4.1300 c          1 NHS       0.712000
     27 OE1         -4.2080    -0.5180     3.3990 o          1 NHS      -0.768000
     28 OE2         -4.3440     0.8360     5.0640 o          1 NHS      -0.768000
     29 CT           1.0330    -0.5970     5.6530 c          1 NHS       0.718000
     30 O1           1.4630    -0.0760     6.6730 o          1 NHS      -0.749500
     31 O2           1.3200    -1.7380     5.3160 o          1 NHS      -0.749500
     32 CA1          4.6680    -0.0910    -2.8520 c          1 NHS       0.728000
     33 OA1          5.4180     0.7190    -3.3780 o          1 NHS      -0.732500
     34 OA2          5.0680    -1.1020    -2.2910 o          1 NHS      -0.732500
     35 HN21        -5.4670     0.8060    -4.0800 hn         1 NHS       0.477000
     36 HN22        -5.8610    -0.0570    -2.6530 hn         1 NHS       0.477000
     37 HN3         -4.3990    -1.5870    -1.8400 hn         1 NHS       0.313500
     38 H5           0.2990    -1.9300    -2.1900 ha         1 NHS       0.151000
     39 H7           1.1560     0.7780    -5.4380 ha         1 NHS       0.106000
     40 H8          -1.2550     1.2930    -5.6460 ha         1 NHS       0.104000
     41 H91          2.5300    -1.8870    -3.1670 hc         1 NHS       0.050700
     42 H92          2.8280    -1.0310    -4.6610 hc         1 NHS       0.050700
     43 H10          3.0190     1.1090    -3.4850 hc         1 NHS       0.032700
     44 H12          1.3400     3.0250     0.3860 ha         1 NHS       0.115000
     45 H13          2.2920     2.5740    -1.8370 ha         1 NHS       0.106500
     46 H15          2.7120    -1.6020    -0.8190 ha         1 NHS       0.106500
     47 H16          1.7620    -1.1770     1.3910 ha         1 NHS       0.115000
     48 HN           1.0690    -0.6830     2.9800 hn         1 NHS       0.303500
     49 HA           0.2510     1.3100     5.0410 h1         1 NHS       0.048700
     50 HB1         -1.4110    -1.1800     4.3690 hc         1 NHS       0.045700
     51 HB2         -1.6440    -0.1430     5.7690 hc         1 NHS       0.045700
     52 HG1         -2.1080     1.7820     4.2770 hc         1 NHS       0.013700
     53 HG2         -1.9940     0.6280     2.8510 hc         1 NHS       0.013700
     54 C            0.8780     1.2810     2.4420 c          1 NHS       0.606700
@<TRIPOS>BOND
     1     1     2 2   
     2     1    12 1   
     3     2     3 1   
     4     2     4 1   
     5     3    35 1   
     6     3    36 1   
     7     4     5 1   
     8     4    37 1   
     9     5     6 2   
    10     5     7 1   
    11     7     8 ar  
    12     7    12 ar  
    13     8     9 ar  
    14     8    38 1   
    15     9    10 ar  
    16     9    13 1   
    17    10    11 ar  
    18    10    39 1   
    19    11    12 ar  
    20    11    40 1   
    21    13    14 1   
    22    13    41 1   
    23    13    42 1   
    24    14    18 1   
    25    14    32 1   
    26    14    43 1   
    27    15    16 ar  
    28    15    20 ar  
    29    15    54 1   
    30    16    17 ar  
    31    16    44 1   
    32    17    18 ar  
    33    17    45 1   
    34    18    19 ar  
    35    19    20 ar  
    36    19    46 1   
    37    20    47 1   
    38    21    54 2   
    39    22    23 1   
    40    22    48 1   
    41    22    54 1   
    42    23    24 1   
    43    23    29 1   
    44    23    49 1   
    45    24    25 1   
    46    24    50 1   
    47    24    51 1   
    48    25    26 1   
    49    25    52 1   
    50    25    53 1   
    51    26    27 1   
    52    26    28 1   
    53    29    30 1   
    54    29    31 1   
    55    32    33 1   
    56    32    34 1   
@<TRIPOS>SUBSTRUCTURE
     1 NHS         1 TEMP              0 ****  ****    0 ROOT
