@<TRIPOS>MOLECULE
NHS
   54    56     1     0     0
SMALL
abcg2


@<TRIPOS>ATOM
      1 N1          -2.6290     1.6090    -4.8990 nc         1 NHS      -0.713100
      2 C2          -3.6960     1.5460    -4.1680 cd         1 NHS       0.693800
      3 NA2         -4.7870     2.2720    -4.4790 nv         1 NHS      -1.055200
      4 N3          -3.8070     0.7240    -3.0790 ns         1 NHS      -0.454400
      5 C4          -2.8110    -0.1220    -2.6400 c          1 NHS       0.586600
      6 O4          -2.9860    -0.8330    -1.6650 o          1 NHS      -0.512000
      7 C4A         -1.6030    -0.0620    -3.4470 ca         1 NHS      -0.207600
      8 C5          -0.4940    -0.8510    -3.1270 ca         1 NHS      -0.022000
      9 C6           0.6570    -0.8060    -3.8870 ca         1 NHS      -0.075300
     10 C7           0.6750     0.0590    -4.9920 ca         1 NHS      -0.076000
     11 C8          -0.4050     0.8450    -5.3230 ca         1 NHS      -0.137000
     12 C8A         -1.5770     0.8060    -4.5510 ca         1 NHS       0.190400
     13 C9           1.8800    -1.5920    -3.5120 c3         1 NHS      -0.013100
     14 C10          2.8690    -0.7470    -2.6910 c3         1 NHS      -0.152400
     15 C11          0.8300     0.6340     0.8580 ca         1 NHS      -0.134600
     16 C12          1.1290     1.5130    -0.1780 ca         1 NHS      -0.086500
     17 C13          1.8140     1.0770    -1.3000 ca         1 NHS      -0.131500
     18 C14          2.2050    -0.2530    -1.4320 ca         1 NHS      -0.033300
     19 C15          1.8940    -1.1330    -0.3970 ca         1 NHS      -0.131500
     20 C16          1.2200    -0.6980     0.7320 ca         1 NHS      -0.086500
     21 O           -0.6500     2.1420     1.9320 o          1 NHS      -0.658100
     22 N            0.1910     0.4620     3.1760 ns         1 NHS      -0.433900
     23 CA          -0.4070     0.9150     4.4120 c3         1 NHS      -0.042300
     24 CB          -0.3810    -0.2120     5.4450 c3         1 NHS      -0.055400
     25 CG          -1.1570    -1.4510     5.0260 c3         1 NHS      -0.199400
     26 CD          -1.2140    -2.5790     6.0720 c          1 NHS       0.712000
     27 OE1         -0.5690    -2.4290     7.1280 o          1 NHS      -0.768000
     28 OE2         -1.9110    -3.5710     5.7680 o          1 NHS      -0.768000
     29 CT           0.2850     2.1800     4.9820 c          1 NHS       0.718000
     30 O1          -0.3600     2.7770     5.8680 o          1 NHS      -0.749500
     31 O2           1.4130     2.4700     4.5490 o          1 NHS      -0.749500
     32 CA1          4.1750    -1.5040    -2.3420 c          1 NHS       0.728000
     33 OA1          5.1760    -0.7920    -2.1370 o          1 NHS      -0.732500
     34 OA2          4.1160    -2.7470    -2.2710 o          1 NHS      -0.732500
     35 HN21        -4.6590     3.0010    -5.1610 hn         1 NHS       0.477000
     36 HN22        -5.4870     2.4570    -3.7800 hn         1 NHS       0.477000
     37 HN3         -4.6760     0.7070    -2.5590 hn         1 NHS       0.313500
     38 H5          -0.5450    -1.4990    -2.2600 ha         1 NHS       0.151000
     39 H7           1.5690     0.1090    -5.6040 ha         1 NHS       0.106000
     40 H8          -0.3670     1.5030    -6.1820 ha         1 NHS       0.104000
     41 H91          1.5970    -2.4770    -2.9400 hc         1 NHS       0.050700
     42 H92          2.3840    -1.9470    -4.4150 hc         1 NHS       0.050700
     43 H10          3.1440     0.1300    -3.2870 hc         1 NHS       0.032700
     44 H12          0.8230     2.5490    -0.1070 ha         1 NHS       0.115000
     45 H13          2.0320     1.7780    -2.0960 ha         1 NHS       0.106500
     46 H15          2.1740    -2.1760    -0.4800 ha         1 NHS       0.106500
     47 H16          0.9780    -1.4230     1.5000 ha         1 NHS       0.115000
     48 HN           0.9490    -0.1980     3.2520 hn         1 NHS       0.303500
     49 HA          -1.4510     1.1670     4.2060 h1         1 NHS       0.048700
     50 HB1          0.6580    -0.4750     5.6680 hc         1 NHS       0.045700
     51 HB2         -0.7960     0.1840     6.3720 hc         1 NHS       0.045700
     52 HG1         -2.1830    -1.1690     4.7650 hc         1 NHS       0.013700
     53 HG2         -0.7400    -1.8710     4.1040 hc         1 NHS       0.013700
     54 C            0.0670     1.1520     2.0340 c          1 NHS       0.606700
@<TRIPOS>BOND
     1     1     2 2   
     2     1    12 1   
     3     2     3 1   
     4     2     4 1   
     5     3    35 1   
     6     3    36 1   
     7     4     5 1   
     8     4    37 1   
     9     5     6 2   
    10     5     7 1   
    11     7     8 ar  
    12     7    12 ar  
    13     8     9 ar  
    14     8    38 1   
    15     9    10 ar  
    16     9    13 1   
    17    10    11 ar  
    18    10    39 1   
    19    11    12 ar  
    20    11    40 1   
    21    13    14 1   
    22    13    41 1   
    23    13    42 1   
    24    14    18 1   
    25    14    32 1   
    26    14    43 1   
    27    15    16 ar  
    28    15    20 ar  
    29    15    54 1   
    30    16    17 ar  
    31    16    44 1   
    32    17    18 ar  
    33    17    45 1   
    34    18    19 ar  
    35    19    20 ar  
    36    19    46 1   
    37    20    47 1   
    38    21    54 2   
    39    22    23 1   
    40    22    48 1   
    41    22    54 1   
    42    23    24 1   
    43    23    29 1   
    44    23    49 1   
    45    24    25 1   
    46    24    50 1   
    47    24    51 1   
    48    25    26 1   
    49    25    52 1   
    50    25    53 1   
    51    26    27 1   
    52    26    28 1   
    53    29    30 1   
    54    29    31 1   
    55    32    33 1   
    56    32    34 1   
@<TRIPOS>SUBSTRUCTURE
     1 NHS         1 TEMP              0 ****  ****    0 ROOT
