@<TRIPOS>MOLECULE
NHT
   32    33     1     0     0
SMALL
No Charge or Current Charge


@<TRIPOS>ATOM
      1 C1           0.0790    -0.5810     1.1620 c5         1 NHT       0.320300
      2 C2          -0.0150     0.9730     0.9980 c5         1 NHT       0.109500
      3 C3           0.7960     1.5260    -0.2180 c6         1 NHT       0.170300
      4 C4           2.2370     0.9590    -0.2180 c6         1 NHT       0.099300
      5 C5           2.1750    -0.5990    -0.2190 c6         1 NHT       0.128300
      6 C6           3.5880    -1.2690    -0.1830 c3         1 NHT       0.170600
      7 C7          -2.0120     0.2620     0.2370 c2         1 NHT       0.703100
      8 C10         -5.5860    -0.2740    -0.8370 c3         1 NHT      -0.107100
      9 N2          -1.4860     1.2690     0.8190 n2         1 NHT      -0.667900
     10 O3           0.8590     2.9630    -0.2150 oh         1 NHT      -0.638000
     11 O4           2.9590     1.4760    -1.3600 oh         1 NHT      -0.719000
     12 O5           1.4230    -1.0830     0.9260 os         1 NHT      -0.397000
     13 N1          -3.3190     0.3580    -0.1160 nu         1 NHT      -0.885400
     14 O6           3.5340    -2.7080    -0.1290 oh         1 NHT      -0.701000
     15 S1          -1.0860    -1.2040    -0.1050 ss         1 NHT      -0.470200
     16 C9          -4.1520    -0.7570    -0.5760 c3         1 NHT       0.227800
     17 H6           4.4630    -3.0280    -0.0440 ho         1 NHT       0.504000
     18 H6C1         4.1440    -0.9560    -1.0770 h1         1 NHT       0.025700
     19 H6C2         4.1290    -0.8820     0.6910 h1         1 NHT       0.025700
     20 H5           1.6680    -0.9340    -1.1350 h1         1 NHT       0.083700
     21 H4           2.7310     1.2790     0.7120 h1         1 NHT       0.054700
     22 H1          -0.2770    -0.8840     2.1560 h2         1 NHT       0.110700
     23 HA           3.9220     1.4460    -1.1480 ho         1 NHT       0.509000
     24 H3           0.3100     1.1850    -1.1450 h1         1 NHT       0.057700
     25 HB           1.5930     3.1740    -0.8360 ho         1 NHT       0.455000
     26 H2           0.3630     1.4510     1.9120 h1         1 NHT       0.100700
     27 H9C1        -4.1710    -1.5520     0.1820 h1         1 NHT       0.049700
     28 H9C2        -3.7400    -1.1800    -1.5020 h1         1 NHT       0.049700
     29 H8          -6.0360     0.1270     0.0790 hc         1 NHT       0.045367
     30 H11         -5.6000     0.5070    -1.6070 hc         1 NHT       0.045367
     31 H12         -6.2070    -1.1080    -1.1860 hc         1 NHT       0.045367
     32 H13         -3.7710     1.2060     0.2090 hn         1 NHT       0.493000
@<TRIPOS>BOND
     1     1     2 1   
     2     1    12 1   
     3     1    15 1   
     4     1    22 1   
     5     2     3 1   
     6     2     9 1   
     7     2    26 1   
     8     3     4 1   
     9     3    10 1   
    10     3    24 1   
    11     4     5 1   
    12     4    11 1   
    13     4    21 1   
    14     5     6 1   
    15     5    12 1   
    16     5    20 1   
    17     6    14 1   
    18     6    18 1   
    19     6    19 1   
    20     7     9 2   
    21     7    13 1   
    22     7    15 1   
    23     8    16 1   
    24     8    29 1   
    25     8    30 1   
    26     8    31 1   
    27    10    25 1   
    28    11    23 1   
    29    13    16 1   
    30    13    32 1   
    31    14    17 1   
    32    16    27 1   
    33    16    28 1   
@<TRIPOS>SUBSTRUCTURE
     1 NHT         1 TEMP              0 ****  ****    0 ROOT
