@<TRIPOS>MOLECULE
NHT
   32    33     1     0     0
SMALL
abcg2


@<TRIPOS>ATOM
      1 C1           0.1970    -0.5270     1.1930 c5         1 NHT       0.320300
      2 C2           0.0250     0.9920     1.0370 c5         1 NHT       0.109500
      3 C3           0.8270     1.5270    -0.1500 c6         1 NHT       0.170300
      4 C4           2.2290     0.9320    -0.1810 c6         1 NHT       0.099300
      5 C5           2.1220    -0.5940    -0.1980 c6         1 NHT       0.128300
      6 C6           3.4760    -1.2690    -0.2210 c3         1 NHT       0.170600
      7 C7          -2.0010     0.3070     0.3230 c2         1 NHT       0.703100
      8 C10         -5.4030    -0.3150    -1.0530 c3         1 NHT      -0.107100
      9 N2          -1.3790     1.2750     0.8820 n2         1 NHT      -0.667900
     10 O3           0.8530     2.9270    -0.0490 oh         1 NHT      -0.638000
     11 O4           2.8600     1.4240    -1.3430 oh         1 NHT      -0.719000
     12 O5           1.4560    -1.0310     0.9770 os         1 NHT      -0.397000
     13 N1          -3.2790     0.3710    -0.0880 nu         1 NHT      -0.885400
     14 O6           3.2910    -2.6610    -0.3170 oh         1 NHT      -0.701000
     15 S1          -1.1070    -1.2070     0.0520 ss         1 NHT      -0.470200
     16 C9          -4.1100    -0.7750    -0.4060 c3         1 NHT       0.227800
     17 H6           4.1530    -3.0660    -0.4420 ho         1 NHT       0.504000
     18 H6C1         4.0360    -0.8790    -1.0780 h1         1 NHT       0.025700
     19 H6C2         4.0330    -0.9910     0.6840 h1         1 NHT       0.025700
     20 H5           1.5560    -0.9030    -1.0900 h1         1 NHT       0.083700
     21 H4           2.7700     1.2400     0.7250 h1         1 NHT       0.054700
     22 H1          -0.0900    -0.8350     2.2000 h2         1 NHT       0.110700
     23 HA           3.8090     1.4560    -1.1980 ho         1 NHT       0.509000
     24 H3           0.3210     1.2100    -1.0770 h1         1 NHT       0.057700
     25 HB           1.3320     3.2690    -0.8110 ho         1 NHT       0.455000
     26 H2           0.4080     1.4670     1.9470 h1         1 NHT       0.100700
     27 H9C1        -4.3310    -1.3660     0.4880 h1         1 NHT       0.049700
     28 H9C2        -3.5740    -1.4270    -1.0990 h1         1 NHT       0.049700
     29 H8          -5.9770     0.3250    -0.3810 hc         1 NHT       0.045367
     30 H11         -5.2080     0.2400    -1.9710 hc         1 NHT       0.045367
     31 H12         -6.0220    -1.1760    -1.3010 hc         1 NHT       0.045367
     32 H13         -3.7570     1.2210     0.1720 hn         1 NHT       0.493000
@<TRIPOS>BOND
     1     1     2 1   
     2     1    12 1   
     3     1    15 1   
     4     1    22 1   
     5     2     3 1   
     6     2     9 1   
     7     2    26 1   
     8     3     4 1   
     9     3    10 1   
    10     3    24 1   
    11     4     5 1   
    12     4    11 1   
    13     4    21 1   
    14     5     6 1   
    15     5    12 1   
    16     5    20 1   
    17     6    14 1   
    18     6    18 1   
    19     6    19 1   
    20     7     9 2   
    21     7    13 1   
    22     7    15 1   
    23     8    16 1   
    24     8    29 1   
    25     8    30 1   
    26     8    31 1   
    27    10    25 1   
    28    11    23 1   
    29    13    16 1   
    30    13    32 1   
    31    14    17 1   
    32    16    27 1   
    33    16    28 1   
@<TRIPOS>SUBSTRUCTURE
     1 NHT         1 TEMP              0 ****  ****    0 ROOT
