@<TRIPOS>MOLECULE
NHU
   42    44     1     0     0
SMALL
No Charge or Current Charge


@<TRIPOS>ATOM
      1 N01          1.6810     0.8290     0.4110 nu         1 NHU      -0.928900
      2 N02         -0.6070     0.8990     0.3400 nb         1 NHU      -0.320000
      3 N03          0.5930    -0.5230    -1.1790 nb         1 NHU      -0.258000
      4 N04         -2.9000     1.0530     0.3280 nu         1 NHU      -0.951900
      5 C05          4.8420    -1.0810    -0.1490 ca         1 NHU      -0.039500
      6 N05         -4.4540    -2.8910     0.1370 nt         1 NHU      -0.604000
      7 C06          5.8100    -0.0930     0.1390 ca         1 NHU      -0.192600
      8 N06          8.1840     0.5230     0.3210 nt         1 NHU      -0.606000
      9 C07          5.3650     1.1940     0.5210 ca         1 NHU      -0.039500
     10 C08          3.9900     1.4770     0.6040 ca         1 NHU      -0.172000
     11 C09          3.0340     0.4970     0.3000 ca         1 NHU       0.349000
     12 C10          3.4700    -0.7880    -0.0650 ca         1 NHU      -0.172000
     13 C12          0.5120     0.3660    -0.1720 ca         1 NHU       0.424900
     14 C13         -1.7580     0.4810    -0.1970 ca         1 NHU       0.439900
     15 C14         -1.7970    -0.4300    -1.2570 ca         1 NHU      -0.326000
     16 C15         -0.5710    -0.9220    -1.7230 ca         1 NHU       0.166900
     17 C16         -4.2590     0.8080     0.1300 ca         1 NHU       0.339000
     18 C17         -5.0580     1.9190    -0.1940 ca         1 NHU      -0.141000
     19 C18         -6.4220     1.7690    -0.4830 ca         1 NHU      -0.074000
     20 C19         -7.0010     0.4950    -0.4460 ca         1 NHU      -0.126000
     21 C20         -6.2230    -0.6220    -0.1040 ca         1 NHU      -0.075000
     22 C21         -4.8450    -0.4830     0.2030 ca         1 NHU      -0.173600
     23 C22         -4.0690    -1.7000     0.6480 c          1 NHU       0.619700
     24 O23         -3.1900    -1.6850     1.4940 o          1 NHU      -0.584100
     25 O25          7.6750    -1.5460    -0.2850 o          1 NHU      -0.612100
     26 HN01         1.5110     1.6440     0.9970 hn         1 NHU       0.509000
     27 HN04        -2.7000     1.9090     0.8430 hn         1 NHU       0.519000
     28 H05          5.1500    -2.0850    -0.4340 ha         1 NHU       0.121500
     29 HN05        -5.1800    -2.9320    -0.5610 hn         1 NHU       0.315500
     30 HN0A        -3.9770    -3.7300     0.4340 hn         1 NHU       0.315500
     31 HN06         7.8810     1.4450     0.5900 hn         1 NHU       0.311000
     32 HN0B         9.1670     0.3040     0.2570 hn         1 NHU       0.311000
     33 H07          6.0700     1.9870     0.7590 ha         1 NHU       0.121500
     34 H08          3.6700     2.4730     0.8980 ha         1 NHU       0.133500
     35 H10          2.7540    -1.5760    -0.2670 ha         1 NHU       0.133500
     36 H14         -2.7310    -0.7410    -1.7120 ha         1 NHU       0.134000
     37 H15         -0.5160    -1.6360    -2.5440 h4         1 NHU       0.018100
     38 H17         -4.6120     2.9080    -0.2480 ha         1 NHU       0.125000
     39 H18         -7.0260     2.6370    -0.7420 ha         1 NHU       0.121000
     40 H19         -8.0590     0.3720    -0.6680 ha         1 NHU       0.122000
     41 H20         -6.7110    -1.5920    -0.0450 ha         1 NHU       0.119000
     42 C11          7.2790    -0.4380     0.0390 c          1 NHU       0.623700
@<TRIPOS>BOND
     1     1    11 1   
     2     1    13 1   
     3     1    26 1   
     4     2    13 ar  
     5     2    14 ar  
     6     3    13 ar  
     7     3    16 ar  
     8     4    14 1   
     9     4    17 1   
    10     4    27 1   
    11     5     7 ar  
    12     5    12 ar  
    13     5    28 1   
    14     6    23 1   
    15     6    29 1   
    16     6    30 1   
    17     7     9 ar  
    18     7    42 1   
    19     8    31 1   
    20     8    32 1   
    21     8    42 1   
    22     9    10 ar  
    23     9    33 1   
    24    10    11 ar  
    25    10    34 1   
    26    11    12 ar  
    27    12    35 1   
    28    14    15 ar  
    29    15    16 ar  
    30    15    36 1   
    31    16    37 1   
    32    17    18 ar  
    33    17    22 ar  
    34    18    19 ar  
    35    18    38 1   
    36    19    20 ar  
    37    19    39 1   
    38    20    21 ar  
    39    20    40 1   
    40    21    22 ar  
    41    21    41 1   
    42    22    23 1   
    43    23    24 2   
    44    25    42 2   
@<TRIPOS>SUBSTRUCTURE
     1 NHU         1 TEMP              0 ****  ****    0 ROOT
