@<TRIPOS>MOLECULE
NHU
   42    44     1     0     0
SMALL
abcg2


@<TRIPOS>ATOM
      1 N01          1.6210     0.9190     0.2670 nu         1 NHU      -0.928900
      2 N02         -0.6310     1.0330     0.1660 nb         1 NHU      -0.320000
      3 N03          0.5120    -0.6260    -1.0850 nb         1 NHU      -0.258000
      4 N04         -2.8890     1.2740     0.1480 nu         1 NHU      -0.951900
      5 C05          4.7510    -0.8490    -0.6460 ca         1 NHU      -0.039500
      6 N05         -3.9390    -2.6410     0.4520 nt         1 NHU      -0.604000
      7 C06          5.6950    -0.0630     0.0080 ca         1 NHU      -0.192600
      8 N06          7.9630     0.1090     0.8090 nt         1 NHU      -0.606000
      9 C07          5.2370     1.0530     0.7100 ca         1 NHU      -0.039500
     10 C08          3.8920     1.3520     0.7660 ca         1 NHU      -0.172000
     11 C09          2.9430     0.5430     0.1260 ca         1 NHU       0.349000
     12 C10          3.3970    -0.5700    -0.5920 ca         1 NHU      -0.172000
     13 C12          0.4650     0.4030    -0.2510 ca         1 NHU       0.424900
     14 C13         -1.8000     0.6030    -0.2920 ca         1 NHU       0.439900
     15 C14         -1.8690    -0.4600    -1.2120 ca         1 NHU      -0.326000
     16 C15         -0.6700    -1.0290    -1.5560 ca         1 NHU       0.166900
     17 C16         -4.2300     0.9060    -0.0290 ca         1 NHU       0.339000
     18 C17         -5.1150     1.8650    -0.5120 ca         1 NHU      -0.141000
     19 C18         -6.4570     1.5660    -0.6890 ca         1 NHU      -0.074000
     20 C19         -6.9250     0.2890    -0.4160 ca         1 NHU      -0.126000
     21 C20         -6.0460    -0.6720     0.0570 ca         1 NHU      -0.075000
     22 C21         -4.7020    -0.3770     0.2760 ca         1 NHU      -0.173600
     23 C22         -3.8330    -1.4000     0.9470 c          1 NHU       0.619700
     24 O23         -3.1230    -1.1100     1.8970 o          1 NHU      -0.584100
     25 O25          7.5280    -1.2050    -0.9650 o          1 NHU      -0.612100
     26 HN01         1.4610     1.7130     0.8690 hn         1 NHU       0.509000
     27 HN04        -2.7010     2.1140     0.6760 hn         1 NHU       0.519000
     28 H05          5.0760    -1.7170    -1.2050 ha         1 NHU       0.121500
     29 HN05        -4.4450    -2.8360    -0.3950 hn         1 NHU       0.315500
     30 HN0A        -3.3890    -3.3890     0.8430 hn         1 NHU       0.315500
     31 HN06         7.6380     0.6190     1.6110 hn         1 NHU       0.311000
     32 HN0B         8.9400    -0.1360     0.7950 hn         1 NHU       0.311000
     33 H07          5.9230     1.7250     1.2100 ha         1 NHU       0.121500
     34 H08          3.5670     2.2300     1.3100 ha         1 NHU       0.133500
     35 H10          2.6970    -1.2090    -1.1040 ha         1 NHU       0.133500
     36 H14         -2.7950    -0.8050    -1.6470 ha         1 NHU       0.134000
     37 H15         -0.6460    -1.8540    -2.2580 h4         1 NHU       0.018100
     38 H17         -4.7410     2.8510    -0.7580 ha         1 NHU       0.125000
     39 H18         -7.1310     2.3290    -1.0560 ha         1 NHU       0.121000
     40 H19         -7.9680     0.0440    -0.5600 ha         1 NHU       0.122000
     41 H20         -6.4200    -1.6590     0.2970 ha         1 NHU       0.119000
     42 C11          7.1330    -0.4370    -0.0950 c          1 NHU       0.623700
@<TRIPOS>BOND
     1     1    11 1   
     2     1    13 1   
     3     1    26 1   
     4     2    13 ar  
     5     2    14 ar  
     6     3    13 ar  
     7     3    16 ar  
     8     4    14 1   
     9     4    17 1   
    10     4    27 1   
    11     5     7 ar  
    12     5    12 ar  
    13     5    28 1   
    14     6    23 1   
    15     6    29 1   
    16     6    30 1   
    17     7     9 ar  
    18     7    42 1   
    19     8    31 1   
    20     8    32 1   
    21     8    42 1   
    22     9    10 ar  
    23     9    33 1   
    24    10    11 ar  
    25    10    34 1   
    26    11    12 ar  
    27    12    35 1   
    28    14    15 ar  
    29    15    16 ar  
    30    15    36 1   
    31    16    37 1   
    32    17    18 ar  
    33    17    22 ar  
    34    18    19 ar  
    35    18    38 1   
    36    19    20 ar  
    37    19    39 1   
    38    20    21 ar  
    39    20    40 1   
    40    21    22 ar  
    41    21    41 1   
    42    22    23 1   
    43    23    24 2   
    44    25    42 2   
@<TRIPOS>SUBSTRUCTURE
     1 NHU         1 TEMP              0 ****  ****    0 ROOT
