@<TRIPOS>MOLECULE
NHV
   42    44     1     0     0
SMALL
bcc


@<TRIPOS>ATOM
      1 O6B         26.7180    50.1830    -3.3600 oh         1 NHV      -0.599800
      2 C6B         25.8060    49.3820    -2.6570 c3         1 NHV       0.134400
      3 C5B         26.5640    48.3120    -1.9040 c6         1 NHV       0.007000
      4 C4B         27.6270    48.8630    -0.9300 c6         1 NHV       0.099100
      5 O4B         27.0840    49.8020    -0.0530 oh         1 NHV      -0.532800
      6 C3B         28.4090    47.7530    -0.1770 c6         1 NHV       0.124100
      7 O3B         29.7510    48.1000    -0.0020 oh         1 NHV      -0.530800
      8 O2B         29.3030    45.5180    -0.4970 oh         1 NHV      -0.539800
      9 N1B         27.2820    47.4130    -2.8120 na         1 NHV      -0.003100
     10 C8B         27.3220    47.3370    -4.1860 cc         1 NHV      -0.095300
     11 C7B         28.1940    46.3480    -4.5000 cd         1 NHV      -0.108600
     12 N2B         28.6680    45.8580    -3.3050 na         1 NHV      -0.103100
     13 C1B         28.1070    46.5120    -2.3040 cc         1 NHV      -0.045900
     14 C7          28.6540    45.8180    -5.8240 c3         1 NHV       0.291100
     15 N1          30.0750    45.6510    -5.9160 nu         1 NHV      -0.787600
     16 C1          30.9670    46.6930    -5.8190 ca         1 NHV       0.146600
     17 C6          30.5660    48.0310    -5.9230 ca         1 NHV      -0.195500
     18 C5          31.5040    49.0510    -5.8540 ca         1 NHV      -0.081500
     19 C4          32.8530    48.7770    -5.6800 ca         1 NHV      -0.151000
     20 C3          33.2550    47.4490    -5.5760 ca         1 NHV      -0.081500
     21 C2          32.3320    46.4210    -5.6410 ca         1 NHV      -0.195500
     22 C20         28.2440    46.3520    -0.8290 c6         1 NHV       0.169400
     23 H6B         26.2230    50.8250    -3.8780 ho         1 NHV       0.439000
     24 H6B1        25.2250    49.9490    -1.9230 h1         1 NHV       0.057200
     25 H6B2        25.0790    48.8980    -3.3210 h1         1 NHV       0.057200
     26 H5B         25.8230    47.7120    -1.3630 h1         1 NHV       0.086700
     27 H4B         28.3480    49.4120    -1.5450 h1         1 NHV       0.118700
     28 HA          26.4700    49.3640     0.5480 ho         1 NHV       0.412000
     29 H3B         27.9950    47.6640     0.8300 h1         1 NHV       0.108700
     30 HB          30.1670    48.2630    -0.8560 ho         1 NHV       0.417000
     31 H20         27.2810    45.9550    -0.4780 h1         1 NHV       0.075700
     32 H2B         28.9780    44.6150    -0.4180 ho         1 NHV       0.431000
     33 H8B         26.7560    47.9840    -4.8300 h4         1 NHV       0.227000
     34 HC          29.3490    45.1180    -3.1960 hn         1 NHV       0.357700
     35 H7C1        28.1980    44.8440    -6.0050 h1         1 NHV       0.088700
     36 H7C2        28.2750    46.4800    -6.6060 h1         1 NHV       0.088700
     37 H1          30.4300    44.7310    -5.7160 hn         1 NHV       0.431800
     38 H6          29.5250    48.2870    -6.0670 ha         1 NHV       0.126000
     39 H2          32.6630    45.3920    -5.5560 ha         1 NHV       0.126000
     40 H5          31.1670    50.0770    -5.9410 ha         1 NHV       0.141000
     41 H4          33.5770    49.5780    -5.6250 ha         1 NHV       0.148000
     42 H3          34.3020    47.2090    -5.4400 ha         1 NHV       0.141000
@<TRIPOS>BOND
     1     1     2 1   
     2     1    23 1   
     3     2     3 1   
     4     2    24 1   
     5     2    25 1   
     6     3     4 1   
     7     3     9 1   
     8     3    26 1   
     9     4     5 1   
    10     4     6 1   
    11     4    27 1   
    12     5    28 1   
    13     6     7 1   
    14     6    22 1   
    15     6    29 1   
    16     7    30 1   
    17     8    22 1   
    18     8    32 1   
    19     9    10 1   
    20     9    13 2   
    21    10    11 2   
    22    10    33 1   
    23    11    12 1   
    24    11    14 1   
    25    12    13 1   
    26    12    34 1   
    27    13    22 1   
    28    14    15 1   
    29    14    35 1   
    30    14    36 1   
    31    15    16 1   
    32    15    37 1   
    33    16    17 ar  
    34    16    21 ar  
    35    17    18 ar  
    36    17    38 1   
    37    18    19 ar  
    38    18    40 1   
    39    19    20 ar  
    40    19    41 1   
    41    20    21 ar  
    42    20    42 1   
    43    21    39 1   
    44    22    31 1   
@<TRIPOS>SUBSTRUCTURE
     1 NHV         1 TEMP              0 ****  ****    0 ROOT
