@<TRIPOS>MOLECULE
NHV
   42    44     1     0     0
SMALL
No Charge or Current Charge


@<TRIPOS>ATOM
      1 O6B         26.8140    50.6120    -2.9130 oh         1 NHV      -0.662000
      2 C6B         25.7680    49.6830    -2.5750 c3         1 NHV       0.157600
      3 C5B         26.3140    48.3780    -1.9170 c6         1 NHV       0.036300
      4 C4B         26.9520    48.6590    -0.5150 c6         1 NHV       0.122300
      5 O4B         25.9340    49.0470     0.4280 oh         1 NHV      -0.655000
      6 C3B         27.7200    47.4130     0.0380 c6         1 NHV       0.147300
      7 O3B         28.2290    47.6920     1.3560 oh         1 NHV      -0.593000
      8 O2B         29.9640    47.9740    -0.7680 oh         1 NHV      -0.662000
      9 N1B         27.2560    47.6210    -2.7830 na         1 NHV       0.018300
     10 C8B         27.0960    47.3370    -4.1440 cc         1 NHV      -0.128000
     11 C7B         28.1550    46.5380    -4.5310 cd         1 NHV      -0.159300
     12 N2B         28.9250    46.3380    -3.4070 na         1 NHV      -0.052000
     13 C1B         28.4010    46.9940    -2.3240 cc         1 NHV      -0.096600
     14 C7          28.4650    45.9470    -5.8880 c3         1 NHV       0.291100
     15 N1          29.8850    45.5280    -5.9360 nu         1 NHV      -0.981200
     16 C1          31.0140    46.3480    -6.0020 ca         1 NHV       0.285000
     17 C6          30.9250    47.7490    -5.8890 ca         1 NHV      -0.177500
     18 C5          32.0840    48.5420    -5.9540 ca         1 NHV      -0.063500
     19 C4          33.3390    47.9370    -6.1330 ca         1 NHV      -0.133000
     20 C3          33.4340    46.5400    -6.2480 ca         1 NHV      -0.063500
     21 C2          32.2720    45.7510    -6.1820 ca         1 NHV      -0.177500
     22 C20         28.9010    47.0150    -0.9020 c6         1 NHV       0.192600
     23 H6B         26.3830    51.4040    -3.3100 ho         1 NHV       0.478000
     24 H6B1        25.0540    50.1480    -1.8820 h1         1 NHV       0.057200
     25 H6B2        25.2010    49.4060    -3.4750 h1         1 NHV       0.057200
     26 H5B         25.4490    47.7200    -1.7570 h1         1 NHV       0.086700
     27 H4B         27.6880    49.4710    -0.6370 h1         1 NHV       0.118700
     28 HA          26.3320    48.9090     1.3210 ho         1 NHV       0.511000
     29 H3B         27.0150    46.5670     0.0750 h1         1 NHV       0.108700
     30 HB          29.1470    48.0190     1.2020 ho         1 NHV       0.456000
     31 H20         29.2510    46.0110    -0.6130 h1         1 NHV       0.075700
     32 H2B         30.6500    47.7480    -1.4380 ho         1 NHV       0.530000
     33 H8B         26.2580    47.7120    -4.7210 h4         1 NHV       0.209000
     34 HC          29.7710    45.7750    -3.4110 hn         1 NHV       0.408000
     35 H7C1        27.8030    45.0840    -6.0500 h1         1 NHV       0.088700
     36 H7C2        28.2450    46.6830    -6.6750 h1         1 NHV       0.088700
     37 H1          30.0550    44.5360    -6.1180 hn         1 NHV       0.487000
     38 H6          29.9630    48.2330    -5.7500 ha         1 NHV       0.108000
     39 H2          32.3530    44.6710    -6.2700 ha         1 NHV       0.108000
     40 H5          32.0090    49.6240    -5.8650 ha         1 NHV       0.123000
     41 H4          34.2360    48.5490    -6.1840 ha         1 NHV       0.130000
     42 H3          34.4050    46.0690    -6.3870 ha         1 NHV       0.123000
@<TRIPOS>BOND
     1     1     2 1   
     2     1    23 1   
     3     2     3 1   
     4     2    24 1   
     5     2    25 1   
     6     3     4 1   
     7     3     9 1   
     8     3    26 1   
     9     4     5 1   
    10     4     6 1   
    11     4    27 1   
    12     5    28 1   
    13     6     7 1   
    14     6    22 1   
    15     6    29 1   
    16     7    30 1   
    17     8    22 1   
    18     8    32 1   
    19     9    10 1   
    20     9    13 2   
    21    10    11 2   
    22    10    33 1   
    23    11    12 1   
    24    11    14 1   
    25    12    13 1   
    26    12    34 1   
    27    13    22 1   
    28    14    15 1   
    29    14    35 1   
    30    14    36 1   
    31    15    16 1   
    32    15    37 1   
    33    16    17 ar  
    34    16    21 ar  
    35    17    18 ar  
    36    17    38 1   
    37    18    19 ar  
    38    18    40 1   
    39    19    20 ar  
    40    19    41 1   
    41    20    21 ar  
    42    20    42 1   
    43    21    39 1   
    44    22    31 1   
@<TRIPOS>SUBSTRUCTURE
     1 NHV         1 TEMP              0 ****  ****    0 ROOT
