@<TRIPOS>MOLECULE
NHW
  124   126     1     0     0
SMALL
No Charge or Current Charge


@<TRIPOS>ATOM
      1 S1          32.8140    42.7180    65.9820 ss         1 NHW      -0.389000
      2 C2          33.0120    44.4410    66.6380 c3         1 NHW       0.034600
      3 C3          34.4520    44.6950    67.1260 c3         1 NHW       0.098000
      4 N4          34.6860    46.0920    67.5050 ns         1 NHW      -0.499900
      5 C5          34.8890    47.1240    66.6170 c          1 NHW       0.609100
      6 O5          34.8120    46.9720    65.4070 o          1 NHW      -0.621100
      7 C6          35.1770    48.4790    67.2570 c3         1 NHW      -0.173400
      8 C7          36.5880    48.9900    66.9080 c3         1 NHW       0.129000
      9 N8          37.6520    48.0400    67.2300 ns         1 NHW      -0.500900
     10 C9          38.1970    47.8200    68.4740 c          1 NHW       0.595100
     11 O9          37.7860    48.4050    69.4710 o          1 NHW      -0.689100
     12 CP          32.2770    41.7950    67.5060 c3         1 NHW      -0.060400
     13 C10         39.4340    46.8470    68.4610 c3         1 NHW       0.127300
     14 O10         39.9850    46.7210    67.1210 oh         1 NHW      -0.758000
     15 C11         39.1540    45.4190    69.0670 c3         1 NHW      -0.083000
     16 C12         40.3790    44.4530    68.8960 c3         1 NHW       0.229600
     17 C13         37.9360    44.7650    68.3620 c3         1 NHW      -0.079100
     18 C14         38.8200    45.5350    70.5830 c3         1 NHW      -0.079100
     19 N1A         35.3620    42.5770    63.4920 nb         1 NHW      -0.338000
     20 O1A         45.7800    43.7150    68.8530 o          1 NHW      -0.868000
     21 P1A         44.7830    44.0960    67.8080 p5         1 NHW       1.498800
     22 C1M         33.3810    41.6470    68.5670 c          1 NHW       0.571100
     23 O1M         33.3430    42.2720    69.6210 o          1 NHW      -0.539100
     24 C1X         40.4190    42.2510    64.8250 c5         1 NHW       0.262300
     25 C2A         36.1530    41.5060    63.7280 ca         1 NHW       0.121900
     26 O2A         45.1830    45.3300    67.0700 o          1 NHW      -0.868000
     27 P2A         42.8270    45.4540    68.8200 p5         1 NHW       1.519800
     28 C2M         34.5090    40.6460    68.2670 c3         1 NHW      -0.166400
     29 C2X         41.3050    41.9720    63.5740 c5         1 NHW       0.145300
     30 O2X         40.6700    41.2590    62.4910 oh         1 NHW      -0.833000
     31 N3A         37.4480    41.5300    64.1180 nb         1 NHW      -0.158000
     32 O3A         43.3170    44.0350    68.3690 os         1 NHW      -0.735800
     33 C3M         35.8790    41.3440    68.0850 c3         1 NHW      -0.069400
     34 C3X         42.4740    41.2250    64.3150 c5         1 NHW       0.184300
     35 O3X         42.0680    39.8890    64.7350 os         1 NHW      -0.587400
     36 P3X         42.3680    38.6840    63.7140 p5         1 NHW       1.298900
     37 C4A         37.9900    42.7530    64.2890 ca         1 NHW       0.118500
     38 O4A         42.3980    46.3230    67.6850 o          1 NHW      -0.860000
     39 C4M         37.0500    40.3510    67.9130 c3         1 NHW      -0.074400
     40 C4X         42.6160    42.0920    65.6210 c5         1 NHW       0.136300
     41 O4X         41.3660    42.8430    65.7370 os         1 NHW      -0.477000
     42 C5A         37.2690    43.9070    64.0970 ca         1 NHW      -0.082600
     43 O5A         43.7340    46.1390    69.7880 o          1 NHW      -0.860000
     44 C5M         38.4290    41.0500    67.9010 c3         1 NHW      -0.067400
     45 C5X         43.8290    43.0690    65.5770 c3         1 NHW       0.231600
     46 O5X         44.6300    42.8860    66.7580 os         1 NHW      -0.622400
     47 C6A         35.9220    43.7810    63.6820 ca         1 NHW       0.400900
     48 N6A         35.0950    44.8350    63.4610 nv         1 NHW      -1.078900
     49 O6A         41.5230    44.9430    69.6150 os         1 NHW      -0.622400
     50 C6M         39.6320    40.1080    67.6590 c3         1 NHW      -0.091400
     51 N7A         38.0280    45.0500    64.3350 nc         1 NHW      -0.609100
     52 O7A         41.8460    37.4150    64.2830 o          1 NHW      -0.905500
     53 C7M         39.8860    39.0920    68.7950 c3         1 NHW      -0.061400
     54 C8A         39.2290    44.5240    64.6670 cd         1 NHW       0.460700
     55 O8A         41.6680    38.9880    62.4390 o          1 NHW      -0.905500
     56 C8M         41.1640    38.2510    68.5680 c3         1 NHW      -0.089400
     57 N9A         39.2630    43.1190    64.6420 na         1 NHW      -0.233300
     58 O9A         43.8320    38.5730    63.4840 o          1 NHW      -0.905500
     59 C9M         41.4120    37.1560    69.6330 c3         1 NHW      -0.063400
     60 CAM         41.7200    37.6980    71.0510 c3         1 NHW      -0.082400
     61 CBM         41.9650    36.6040    72.1180 c3         1 NHW      -0.066400
     62 CCM         43.2440    35.7620    71.8960 c3         1 NHW      -0.082400
     63 CDM         43.5000    34.7460    73.0310 c3         1 NHW      -0.074400
     64 CEM         44.7720    33.9040    72.8120 c3         1 NHW      -0.087100
     65 H2          32.7800    45.1420    65.8270 h1         1 NHW       0.062200
     66 H2A         32.2980    44.6140    67.4540 h1         1 NHW       0.062200
     67 H3          34.6640    44.0600    67.9940 h1         1 NHW       0.085700
     68 H3A         35.1610    44.4200    66.3330 h1         1 NHW       0.085700
     69 HN4         34.7500    46.3240    68.4890 hn         1 NHW       0.314500
     70 H6          34.4510    49.2070    66.8780 hc         1 NHW       0.051700
     71 H6A         35.0780    48.4150    68.3470 hc         1 NHW       0.051700
     72 H7          36.6370    49.1980    65.8310 h1         1 NHW       0.040200
     73 H7A         36.7780    49.9330    67.4360 h1         1 NHW       0.040200
     74 HN8         38.1310    47.5490    66.4800 hn         1 NHW       0.371500
     75 HP          31.4220    42.3070    67.9630 h1         1 NHW       0.073700
     76 HPA         31.9570    40.7870    67.2140 h1         1 NHW       0.073700
     77 H10         40.1800    47.3370    69.1010 h1         1 NHW       0.070700
     78 HO10        40.9850    46.5800    67.2630 ho         1 NHW       0.553000
     79 H12         40.1070    43.4620    69.2840 h1         1 NHW       0.049700
     80 H12A        40.6010    44.3150    67.8290 h1         1 NHW       0.049700
     81 H13         37.7220    43.7810    68.7900 hc         1 NHW       0.027533
     82 H13A        37.0370    45.3750    68.4920 hc         1 NHW       0.027533
     83 H13B        38.1130    44.6370    67.2890 hc         1 NHW       0.027533
     84 H14         38.7220    44.5420    71.0370 hc         1 NHW       0.027533
     85 H14A        39.6060    46.0770    71.1230 hc         1 NHW       0.027533
     86 H14B        37.8730    46.0630    70.7470 hc         1 NHW       0.027533
     87 H1X         40.0350    41.3090    65.2350 h2         1 NHW       0.086700
     88 H2AA        35.7050    40.5240    63.5850 h5         1 NHW       0.016100
     89 H2M         34.5820    39.9540    69.1140 hc         1 NHW       0.058200
     90 H2MA        34.2730    40.0800    67.3580 hc         1 NHW       0.058200
     91 H2X         41.6790    42.9290    63.1820 h1         1 NHW       0.004700
     92 HO2X        41.0780    40.3110    62.4840 ho         1 NHW       0.611000
     93 H3M         35.8400    42.0090    67.2120 hc         1 NHW       0.054200
     94 H3MA        36.0740    41.9730    68.9620 hc         1 NHW       0.054200
     95 H3X         43.3990    41.1810    63.7240 h1         1 NHW       0.062700
     96 H4M         37.0210    39.6240    68.7330 hc         1 NHW       0.029700
     97 H4MA        36.9150    39.7920    66.9790 hc         1 NHW       0.029700
     98 H4X         42.7160    41.4440    66.5030 h1         1 NHW       0.060700
     99 H5M         38.4270    41.8230    67.1230 hc         1 NHW       0.050200
    100 H5MA        38.5770    41.5690    68.8560 hc         1 NHW       0.050200
    101 H5X         44.4370    42.8660    64.6850 h1         1 NHW       0.044200
    102 H5XA        43.4560    44.0980    65.4880 h1         1 NHW       0.044200
    103 HN6A        34.1120    44.6090    63.3700 hn         1 NHW       0.485000
    104 HN6B        35.2800    45.6740    64.0160 hn         1 NHW       0.485000
    105 H6M         39.4900    39.5720    66.7120 hc         1 NHW       0.079200
    106 H6MA        40.5300    40.7250    67.5380 hc         1 NHW       0.079200
    107 H7M         39.9670    39.6370    69.7420 hc         1 NHW       0.013200
    108 H7MA        39.0270    38.4150    68.8820 hc         1 NHW       0.013200
    109 H8A         40.1180    45.0940    64.9150 h5         1 NHW       0.102800
    110 H8M         41.0960    37.7670    67.5850 hc         1 NHW       0.072200
    111 H8MA        42.0360    38.9160    68.5240 hc         1 NHW       0.072200
    112 H9M         40.5390    36.4930    69.6780 hc         1 NHW       0.019200
    113 H9MA        42.2540    36.5430    69.2910 hc         1 NHW       0.019200
    114 HAM         42.5930    38.3610    71.0070 hc         1 NHW       0.056200
    115 HAMA        40.8790    38.3130    71.3920 hc         1 NHW       0.056200
    116 HBM         42.0320    37.0900    73.0990 hc         1 NHW       0.015700
    117 HBMA        41.0930    35.9380    72.1580 hc         1 NHW       0.015700
    118 HCM         43.1660    35.2170    70.9480 hc         1 NHW       0.053200
    119 HCMA        44.1070    36.4330    71.8110 hc         1 NHW       0.053200
    120 HDM         43.5880    35.2810    73.9850 hc         1 NHW       0.021200
    121 HDMA        42.6380    34.0730    73.1180 hc         1 NHW       0.021200
    122 HEM         44.9110    33.2010    73.6410 hc         1 NHW       0.025367
    123 HEMA        44.7000    33.3280    71.8810 hc         1 NHW       0.025367
    124 HEMB        45.6580    34.5480    72.7550 hc         1 NHW       0.025367
@<TRIPOS>BOND
     1     1     2 1   
     2     1    12 1   
     3     2     3 1   
     4     2    65 1   
     5     2    66 1   
     6     3     4 1   
     7     3    67 1   
     8     3    68 1   
     9     4     5 1   
    10     4    69 1   
    11     5     6 2   
    12     5     7 1   
    13     7     8 1   
    14     7    70 1   
    15     7    71 1   
    16     8     9 1   
    17     8    72 1   
    18     8    73 1   
    19     9    10 1   
    20     9    74 1   
    21    10    11 2   
    22    10    13 1   
    23    12    22 1   
    24    12    75 1   
    25    12    76 1   
    26    13    14 1   
    27    13    15 1   
    28    13    77 1   
    29    14    78 1   
    30    15    16 1   
    31    15    17 1   
    32    15    18 1   
    33    16    49 1   
    34    16    79 1   
    35    16    80 1   
    36    17    81 1   
    37    17    82 1   
    38    17    83 1   
    39    18    84 1   
    40    18    85 1   
    41    18    86 1   
    42    19    25 ar  
    43    19    47 ar  
    44    20    21 1   
    45    21    26 1   
    46    21    32 1   
    47    21    46 1   
    48    22    23 2   
    49    22    28 1   
    50    24    29 1   
    51    24    41 1   
    52    24    57 1   
    53    24    87 1   
    54    25    31 ar  
    55    25    88 1   
    56    27    32 1   
    57    27    38 1   
    58    27    43 1   
    59    27    49 1   
    60    28    33 1   
    61    28    89 1   
    62    28    90 1   
    63    29    30 1   
    64    29    34 1   
    65    29    91 1   
    66    30    92 1   
    67    31    37 ar  
    68    33    39 1   
    69    33    93 1   
    70    33    94 1   
    71    34    35 1   
    72    34    40 1   
    73    34    95 1   
    74    35    36 1   
    75    36    52 1   
    76    36    55 1   
    77    36    58 1   
    78    37    42 ar  
    79    37    57 1   
    80    39    44 1   
    81    39    96 1   
    82    39    97 1   
    83    40    41 1   
    84    40    45 1   
    85    40    98 1   
    86    42    47 ar  
    87    42    51 1   
    88    44    50 1   
    89    44    99 1   
    90    44   100 1   
    91    45    46 1   
    92    45   101 1   
    93    45   102 1   
    94    47    48 1   
    95    48   103 1   
    96    48   104 1   
    97    50    53 1   
    98    50   105 1   
    99    50   106 1   
   100    51    54 2   
   101    53    56 1   
   102    53   107 1   
   103    53   108 1   
   104    54    57 1   
   105    54   109 1   
   106    56    59 1   
   107    56   110 1   
   108    56   111 1   
   109    59    60 1   
   110    59   112 1   
   111    59   113 1   
   112    60    61 1   
   113    60   114 1   
   114    60   115 1   
   115    61    62 1   
   116    61   116 1   
   117    61   117 1   
   118    62    63 1   
   119    62   118 1   
   120    62   119 1   
   121    63    64 1   
   122    63   120 1   
   123    63   121 1   
   124    64   122 1   
   125    64   123 1   
   126    64   124 1   
@<TRIPOS>SUBSTRUCTURE
     1 NHW         1 TEMP              0 ****  ****    0 ROOT
