@<TRIPOS>MOLECULE
NHW
  124   126     1     0     0
SMALL
abcg2


@<TRIPOS>ATOM
      1 S1          32.5540    42.7850    66.6550 ss         1 NHW      -0.389000
      2 C2          32.8580    44.5600    66.9200 c3         1 NHW       0.034600
      3 C3          34.2730    44.8940    67.3890 c3         1 NHW       0.098000
      4 N4          34.4900    46.3290    67.4590 ns         1 NHW      -0.499900
      5 C5          34.8780    47.0810    66.4170 c          1 NHW       0.609100
      6 O5          35.0840    46.6170    65.2900 o          1 NHW      -0.621100
      7 C6          35.0680    48.5540    66.7130 c3         1 NHW      -0.173400
      8 C7          36.4010    49.0690    66.1670 c3         1 NHW       0.129000
      9 N8          37.5430    48.2760    66.5900 ns         1 NHW      -0.500900
     10 C9          38.0280    48.2600    67.8390 c          1 NHW       0.595100
     11 O9          37.5280    48.9010    68.7680 o          1 NHW      -0.689100
     12 CP          32.2120    42.1880    68.3460 c3         1 NHW      -0.060400
     13 C10         39.2700    47.3900    68.0390 c3         1 NHW       0.127300
     14 O10         39.8290    47.0800    66.7730 oh         1 NHW      -0.758000
     15 C11         38.9860    46.1010    68.8720 c3         1 NHW      -0.083000
     16 C12         40.2570    45.2420    68.8820 c3         1 NHW       0.229600
     17 C13         37.8810    45.2630    68.2210 c3         1 NHW      -0.079100
     18 C14         38.6000    46.4490    70.3130 c3         1 NHW      -0.079100
     19 N1A         35.4680    41.6930    64.1200 nb         1 NHW      -0.338000
     20 O1A         43.3310    43.3330    70.2640 o          1 NHW      -0.868000
     21 P1A         43.8940    43.5180    68.8970 p5         1 NHW       1.498800
     22 C1M         33.4690    42.0750    69.1770 c          1 NHW       0.571100
     23 O1M         33.6250    42.7760    70.1600 o          1 NHW      -0.539100
     24 C1X         40.5320    41.6690    64.8770 c5         1 NHW       0.262300
     25 C2A         36.3420    40.6900    64.2510 ca         1 NHW       0.121900
     26 O2A         45.3670    43.6420    68.6830 o          1 NHW      -0.868000
     27 P2A         42.7160    46.2370    68.6540 p5         1 NHW       1.519800
     28 C2M         34.5080    41.0650    68.7470 c3         1 NHW      -0.166400
     29 C2X         41.5250    41.6750    63.7140 c5         1 NHW       0.145300
     30 O2X         41.0580    40.9330    62.6260 oh         1 NHW      -0.833000
     31 N3A         37.6540    40.7650    64.4620 nb         1 NHW      -0.158000
     32 O3A         43.1690    44.7740    68.1330 os         1 NHW      -0.735800
     33 C3M         35.9140    41.6580    68.6290 c3         1 NHW      -0.069400
     34 C3X         42.8150    41.1500    64.4130 c5         1 NHW       0.184300
     35 O3X         43.0190    39.7620    64.2560 os         1 NHW      -0.587400
     36 P3X         43.9190    39.2080    62.9430 p5         1 NHW       1.298900
     37 C4A         38.0740    42.0320    64.5460 ca         1 NHW       0.118500
     38 O4A         42.3800    46.9990    67.4000 o          1 NHW      -0.860000
     39 C4M         36.9770    40.5960    68.3740 c3         1 NHW      -0.074400
     40 C4X         42.5410    41.4390    65.9060 c5         1 NHW       0.136300
     41 O4X         41.2880    42.1430    65.9720 os         1 NHW      -0.477000
     42 C5A         37.2800    43.1740    64.4420 ca         1 NHW      -0.082600
     43 O5A         43.6990    46.8030    69.6180 o          1 NHW      -0.860000
     44 C5M         38.3820    41.1840    68.2650 c3         1 NHW      -0.067400
     45 C5X         43.6060    42.2470    66.5960 c3         1 NHW       0.231600
     46 O5X         43.2920    42.3180    67.9910 os         1 NHW      -0.622400
     47 C6A         35.9050    42.9660    64.2140 ca         1 NHW       0.400900
     48 N6A         35.0190    43.9650    64.0490 nv         1 NHW      -1.078900
     49 O6A         41.3670    45.9290    69.4870 os         1 NHW      -0.622400
     50 C6M         39.4570    40.1730    67.8710 c3         1 NHW      -0.091400
     51 N7A         38.0600    44.3130    64.5590 nc         1 NHW      -0.609100
     52 O7A         43.9320    37.7120    63.1750 o          1 NHW      -0.905500
     53 C7M         39.7470    39.0790    68.8960 c3         1 NHW      -0.061400
     54 C8A         39.2820    43.8680    64.7240 cd         1 NHW       0.460700
     55 O8A         43.0910    39.6480    61.7200 o          1 NHW      -0.905500
     56 C8M         40.9040    38.1860    68.4480 c3         1 NHW      -0.089400
     57 N9A         39.3590    42.4920    64.7270 na         1 NHW      -0.233300
     58 O9A         45.2650    39.9030    63.0270 o          1 NHW      -0.905500
     59 C9M         41.2330    37.0260    69.3900 c3         1 NHW      -0.063400
     60 CAM         41.7720    37.4640    70.7530 c3         1 NHW      -0.082400
     61 CBM         42.1540    36.3040    71.6770 c3         1 NHW      -0.066400
     62 CCM         43.3620    35.4930    71.2090 c3         1 NHW      -0.082400
     63 CDM         43.7520    34.3810    72.1810 c3         1 NHW      -0.074400
     64 CEM         44.9580    33.5700    71.7100 c3         1 NHW      -0.087100
     65 H2          32.6760    45.0180    65.9470 h1         1 NHW       0.062200
     66 H2A         32.1130    44.9430    67.6180 h1         1 NHW       0.062200
     67 H3          34.4540    44.4920    68.3820 h1         1 NHW       0.085700
     68 H3A         35.0040    44.4610    66.7110 h1         1 NHW       0.085700
     69 HN4         34.3400    46.7850    68.3450 hn         1 NHW       0.314500
     70 H6          34.2570    49.1030    66.2280 hc         1 NHW       0.051700
     71 H6A         35.0040    48.7400    67.7840 hc         1 NHW       0.051700
     72 H7          36.3890    49.0510    65.0800 h1         1 NHW       0.040200
     73 H7A         36.5350    50.1030    66.4890 h1         1 NHW       0.040200
     74 HN8         38.0610    47.7520    65.9010 hn         1 NHW       0.371500
     75 HP          31.4890    42.8420    68.8320 h1         1 NHW       0.073700
     76 HPA         31.7770    41.1960    68.2060 h1         1 NHW       0.073700
     77 H10         39.9710    48.0040    68.6130 h1         1 NHW       0.070700
     78 HO10        40.8130    47.0300    66.9040 ho         1 NHW       0.553000
     79 H12         40.0720    44.3460    69.4780 h1         1 NHW       0.049700
     80 H12A        40.5100    44.9280    67.8700 h1         1 NHW       0.049700
     81 H13         37.7740    44.3080    68.7380 hc         1 NHW       0.027533
     82 H13A        36.9240    45.7800    68.2760 hc         1 NHW       0.027533
     83 H13B        38.1000    45.0590    67.1740 hc         1 NHW       0.027533
     84 H14         38.4710    45.5300    70.8900 hc         1 NHW       0.027533
     85 H14A        39.3740    47.0480    70.7960 hc         1 NHW       0.027533
     86 H14B        37.6680    47.0100    70.3430 hc         1 NHW       0.027533
     87 H1X         40.1740    40.6490    65.0430 h2         1 NHW       0.086700
     88 H2AA        35.9250    39.6910    64.1760 h5         1 NHW       0.016100
     89 H2M         34.5050    40.2850    69.5180 hc         1 NHW       0.058200
     90 H2MA        34.2110    40.5960    67.8080 hc         1 NHW       0.058200
     91 H2X         41.7000    42.7240    63.4380 h1         1 NHW       0.004700
     92 HO2X        41.8360    40.4210    62.2210 ho         1 NHW       0.611000
     93 H3M         35.9270    42.3860    67.8130 hc         1 NHW       0.054200
     94 H3MA        36.1490    42.2070    69.5440 hc         1 NHW       0.054200
     95 H3X         43.6900    41.6960    64.0550 h1         1 NHW       0.062700
     96 H4M         36.9420    39.8540    69.1780 hc         1 NHW       0.029700
     97 H4MA        36.7400    40.0610    67.4480 hc         1 NHW       0.029700
     98 H4X         42.4260    40.4760    66.4140 h1         1 NHW       0.060700
     99 H5M         38.3690    41.9860    67.5210 hc         1 NHW       0.050200
    100 H5MA        38.6540    41.6560    69.2160 hc         1 NHW       0.050200
    101 H5X         44.5740    41.7600    66.4570 h1         1 NHW       0.044200
    102 H5XA        43.6500    43.2490    66.1620 h1         1 NHW       0.044200
    103 HN6A        34.0480    43.7000    63.9970 hn         1 NHW       0.485000
    104 HN6B        35.2130    44.8960    64.4100 hn         1 NHW       0.485000
    105 H6M         39.1730    39.7060    66.9220 hc         1 NHW       0.079200
    106 H6MA        40.3830    40.7160    67.6770 hc         1 NHW       0.079200
    107 H7M         39.9830    39.5450    69.8580 hc         1 NHW       0.013200
    108 H7MA        38.8590    38.4600    69.0600 hc         1 NHW       0.013200
    109 H8A         40.1590    44.4790    64.8680 h5         1 NHW       0.102800
    110 H8M         40.6670    37.7820    67.4570 hc         1 NHW       0.072200
    111 H8MA        41.8000    38.8040    68.3140 hc         1 NHW       0.072200
    112 H9M         40.3360    36.4140    69.5410 hc         1 NHW       0.019200
    113 H9MA        41.9670    36.3800    68.9010 hc         1 NHW       0.019200
    114 HAM         42.6470    38.1070    70.6010 hc         1 NHW       0.056200
    115 HAMA        41.0230    38.0810    71.2560 hc         1 NHW       0.056200
    116 HBM         42.3670    36.7010    72.6750 hc         1 NHW       0.015700
    117 HBMA        41.2920    35.6360    71.7900 hc         1 NHW       0.015700
    118 HCM         43.1600    35.0510    70.2290 hc         1 NHW       0.053200
    119 HCMA        44.2150    36.1670    71.0720 hc         1 NHW       0.053200
    120 HDM         43.9660    34.8200    73.1620 hc         1 NHW       0.021200
    121 HDMA        42.8950    33.7140    72.3230 hc         1 NHW       0.021200
    122 HEM         45.2130    32.7820    72.4220 hc         1 NHW       0.025367
    123 HEMA        44.7590    33.0980    70.7450 hc         1 NHW       0.025367
    124 HEMB        45.8360    34.2110    71.5910 hc         1 NHW       0.025367
@<TRIPOS>BOND
     1     1     2 1   
     2     1    12 1   
     3     2     3 1   
     4     2    65 1   
     5     2    66 1   
     6     3     4 1   
     7     3    67 1   
     8     3    68 1   
     9     4     5 1   
    10     4    69 1   
    11     5     6 2   
    12     5     7 1   
    13     7     8 1   
    14     7    70 1   
    15     7    71 1   
    16     8     9 1   
    17     8    72 1   
    18     8    73 1   
    19     9    10 1   
    20     9    74 1   
    21    10    11 2   
    22    10    13 1   
    23    12    22 1   
    24    12    75 1   
    25    12    76 1   
    26    13    14 1   
    27    13    15 1   
    28    13    77 1   
    29    14    78 1   
    30    15    16 1   
    31    15    17 1   
    32    15    18 1   
    33    16    49 1   
    34    16    79 1   
    35    16    80 1   
    36    17    81 1   
    37    17    82 1   
    38    17    83 1   
    39    18    84 1   
    40    18    85 1   
    41    18    86 1   
    42    19    25 ar  
    43    19    47 ar  
    44    20    21 1   
    45    21    26 1   
    46    21    32 1   
    47    21    46 1   
    48    22    23 2   
    49    22    28 1   
    50    24    29 1   
    51    24    41 1   
    52    24    57 1   
    53    24    87 1   
    54    25    31 ar  
    55    25    88 1   
    56    27    32 1   
    57    27    38 1   
    58    27    43 1   
    59    27    49 1   
    60    28    33 1   
    61    28    89 1   
    62    28    90 1   
    63    29    30 1   
    64    29    34 1   
    65    29    91 1   
    66    30    92 1   
    67    31    37 ar  
    68    33    39 1   
    69    33    93 1   
    70    33    94 1   
    71    34    35 1   
    72    34    40 1   
    73    34    95 1   
    74    35    36 1   
    75    36    52 1   
    76    36    55 1   
    77    36    58 1   
    78    37    42 ar  
    79    37    57 1   
    80    39    44 1   
    81    39    96 1   
    82    39    97 1   
    83    40    41 1   
    84    40    45 1   
    85    40    98 1   
    86    42    47 ar  
    87    42    51 1   
    88    44    50 1   
    89    44    99 1   
    90    44   100 1   
    91    45    46 1   
    92    45   101 1   
    93    45   102 1   
    94    47    48 1   
    95    48   103 1   
    96    48   104 1   
    97    50    53 1   
    98    50   105 1   
    99    50   106 1   
   100    51    54 2   
   101    53    56 1   
   102    53   107 1   
   103    53   108 1   
   104    54    57 1   
   105    54   109 1   
   106    56    59 1   
   107    56   110 1   
   108    56   111 1   
   109    59    60 1   
   110    59   112 1   
   111    59   113 1   
   112    60    61 1   
   113    60   114 1   
   114    60   115 1   
   115    61    62 1   
   116    61   116 1   
   117    61   117 1   
   118    62    63 1   
   119    62   118 1   
   120    62   119 1   
   121    63    64 1   
   122    63   120 1   
   123    63   121 1   
   124    64   122 1   
   125    64   123 1   
   126    64   124 1   
@<TRIPOS>SUBSTRUCTURE
     1 NHW         1 TEMP              0 ****  ****    0 ROOT
