@<TRIPOS>MOLECULE
NHX
   65    66     1     0     0
SMALL
No Charge or Current Charge


@<TRIPOS>ATOM
      1 C           -6.6850     1.4910     0.7770 c          1 NHX       0.596100
      2 N           -4.2050     1.3720     0.5260 ns         1 NHX      -0.486900
      3 O           -6.7870     0.3870     0.2630 o          1 NHX      -0.611100
      4 CA          -5.3260     2.2280     0.9760 c3         1 NHX       0.032700
      5 CB          -5.2900     3.6080     0.2730 c3         1 NHX      -0.110100
      6 CAA          4.3530     4.1620    -0.6490 c3         1 NHX      -0.090600
      7 CAB          3.8080     3.1880     1.6340 c3         1 NHX      -0.090600
      8 NAD         -7.7960     2.1370     1.1990 nt         1 NHX      -0.601000
      9 OAF          3.5740    -0.6950     2.1100 o          1 NHX      -0.577100
     10 OAG          0.2710     0.6570    -1.5970 o          1 NHX      -0.609100
     11 OAH         -2.5380     2.3880     1.7000 o          1 NHX      -0.612100
     12 OAI          6.2920    -0.4250     1.4310 oh         1 NHX      -0.424100
     13 CAJ          2.2340    -5.0080    -1.8880 ca         1 NHX      -0.105000
     14 CAK          1.3770    -4.5150    -2.8870 ca         1 NHX      -0.106000
     15 CAL         -0.2080    -2.4510     1.4650 ca         1 NHX      -0.107000
     16 CAM          2.0510    -4.6220    -0.5490 ca         1 NHX      -0.097000
     17 CAN          0.3360    -3.6330    -2.5490 ca         1 NHX      -0.097000
     18 CAO          0.8240    -3.3430     1.1310 ca         1 NHX      -0.091000
     19 CAP         -0.8890    -2.3550    -0.8670 ca         1 NHX      -0.089000
     20 CAQ          2.8050    -0.1860    -0.1270 c3         1 NHX      -0.147400
     21 CAR         -2.1680    -0.9520     0.8310 c3         1 NHX      -0.040100
     22 CAS          2.5150     2.4050    -0.4690 c3         1 NHX      -0.077400
     23 NAT          5.1840    -0.4390     0.4980 ns         1 NHX      -0.392400
     24 NAV         -0.4960     0.8780     0.5370 ns         1 NHX      -0.480900
     25 CAX          3.8680    -0.4460     0.9480 c          1 NHX       0.603100
     26 CAY          0.5020     0.8550    -0.4120 c          1 NHX       0.601100
     27 CAZ         -2.8880     1.5130     0.9160 c          1 NHX       0.589100
     28 CBA         -1.0690    -1.9500     0.4690 ca         1 NHX      -0.083300
     29 CBB          1.0090    -3.7390    -0.2060 ca         1 NHX      -0.035000
     30 CBC          0.1480    -3.2430    -1.2090 ca         1 NHX      -0.034000
     31 CBD          3.8660     2.9090     0.1130 c3         1 NHX      -0.059700
     32 CBF          1.9300     1.0870     0.1270 c3         1 NHX      -0.127700
     33 CBG         -1.9040     0.4810     0.2950 c3         1 NHX       0.040700
     34 HN          -4.4180     0.6080    -0.1060 hn         1 NHX       0.342500
     35 HA          -5.2200     2.3910     2.0560 h1         1 NHX       0.075700
     36 HB          -6.0810     4.2650     0.6530 hc         1 NHX       0.052367
     37 HBA         -4.3300     4.1090     0.4450 hc         1 NHX       0.052367
     38 HBB         -5.4270     3.4940    -0.8090 hc         1 NHX       0.052367
     39 HAA          5.3340     4.4850    -0.2800 hc         1 NHX       0.035367
     40 HAAA         4.4500     3.9530    -1.7220 hc         1 NHX       0.035367
     41 HAAB         3.6490     4.9940    -0.5250 hc         1 NHX       0.035367
     42 HAB          4.7630     3.5950     1.9880 hc         1 NHX       0.035367
     43 HABA         3.0200     3.9140     1.8680 hc         1 NHX       0.035367
     44 HABB         3.6140     2.2710     2.2020 hc         1 NHX       0.035367
     45 HNAD        -8.6960     1.6950     1.0860 hn         1 NHX       0.318000
     46 HNAA        -7.7230     3.0490     1.6270 hn         1 NHX       0.318000
     47 HOAI         6.8770    -1.1510     1.1090 ho         1 NHX       0.444000
     48 HAJ          3.0400    -5.6900    -2.1510 ha         1 NHX       0.114000
     49 HAK          1.5210    -4.8140    -3.9230 ha         1 NHX       0.114000
     50 HAL         -0.3310    -2.1430     2.5010 ha         1 NHX       0.108000
     51 HAM          2.7180    -5.0070     0.2180 ha         1 NHX       0.114000
     52 HAN         -0.3220    -3.2530    -3.3280 ha         1 NHX       0.114000
     53 HAO          1.4840    -3.7180     1.9100 ha         1 NHX       0.116000
     54 HAP         -1.5460    -1.9660    -1.6420 ha         1 NHX       0.113000
     55 HAQ          3.2650    -0.1270    -1.1210 hc         1 NHX       0.073700
     56 HAQA         2.1440    -1.0590    -0.1150 hc         1 NHX       0.073700
     57 HAR         -3.1330    -1.3100     0.4520 hc         1 NHX       0.064700
     58 HARA        -2.2760    -0.9020     1.9220 hc         1 NHX       0.064700
     59 HAS          1.7700     3.2010    -0.3380 hc         1 NHX       0.055200
     60 HASA         2.6260     2.2750    -1.5540 hc         1 NHX       0.055200
     61 HNAT         5.3860    -0.1100    -0.4450 hn         1 NHX       0.337500
     62 HNAV        -0.2210     1.0980     1.4870 hn         1 NHX       0.324500
     63 HBD          4.6220     2.1350    -0.0550 hc         1 NHX       0.044700
     64 HBF          1.8290     1.2180     1.2100 hc         1 NHX       0.081700
     65 HBG         -2.0900     0.4850    -0.7870 h1         1 NHX       0.080700
@<TRIPOS>BOND
     1     1     3 2   
     2     1     4 1   
     3     1     8 1   
     4     2     4 1   
     5     2    27 1   
     6     2    34 1   
     7     4     5 1   
     8     4    35 1   
     9     5    36 1   
    10     5    37 1   
    11     5    38 1   
    12     6    31 1   
    13     6    39 1   
    14     6    40 1   
    15     6    41 1   
    16     7    31 1   
    17     7    42 1   
    18     7    43 1   
    19     7    44 1   
    20     8    45 1   
    21     8    46 1   
    22     9    25 2   
    23    10    26 2   
    24    11    27 2   
    25    12    23 1   
    26    12    47 1   
    27    13    14 ar  
    28    13    16 ar  
    29    13    48 1   
    30    14    17 ar  
    31    14    49 1   
    32    15    18 ar  
    33    15    28 ar  
    34    15    50 1   
    35    16    29 ar  
    36    16    51 1   
    37    17    30 ar  
    38    17    52 1   
    39    18    29 ar  
    40    18    53 1   
    41    19    28 ar  
    42    19    30 ar  
    43    19    54 1   
    44    20    25 1   
    45    20    32 1   
    46    20    55 1   
    47    20    56 1   
    48    21    28 1   
    49    21    33 1   
    50    21    57 1   
    51    21    58 1   
    52    22    31 1   
    53    22    32 1   
    54    22    59 1   
    55    22    60 1   
    56    23    25 1   
    57    23    61 1   
    58    24    26 1   
    59    24    33 1   
    60    24    62 1   
    61    26    32 1   
    62    27    33 1   
    63    29    30 ar  
    64    31    63 1   
    65    32    64 1   
    66    33    65 1   
@<TRIPOS>SUBSTRUCTURE
     1 NHX         1 TEMP              0 ****  ****    0 ROOT
