@<TRIPOS>MOLECULE
NHX
   65    66     1     0     0
SMALL
bcc


@<TRIPOS>ATOM
      1 C           -5.4700     2.0190    -0.7120 c          1 NHX       0.663100
      2 N           -3.2170     1.3220    -0.2420 ns         1 NHX      -0.553900
      3 O           -5.5590     1.1170    -1.5330 o          1 NHX      -0.611100
      4 CA          -4.1230     2.4370    -0.1290 c3         1 NHX       0.032700
      5 CB          -3.6050     3.6790    -0.8600 c3         1 NHX      -0.110100
      6 CAA          3.0580     4.5480     1.9960 c3         1 NHX      -0.090600
      7 CAB          3.8580     2.1920     2.3030 c3         1 NHX      -0.090600
      8 NAD         -6.5100     2.7420    -0.2860 nt         1 NHX      -0.668000
      9 OAF          4.8870     0.5910    -0.7330 o          1 NHX      -0.577100
     10 OAG          0.0630     1.5380    -1.5120 o          1 NHX      -0.609100
     11 OAH         -1.7610     2.0020     1.3490 o          1 NHX      -0.612100
     12 OAI          6.4630     2.5510    -1.7430 oh         1 NHX      -0.385100
     13 CAJ          0.3260    -7.0450    -0.5220 ca         1 NHX      -0.123000
     14 CAK         -0.8750    -6.7270    -1.1930 ca         1 NHX      -0.124000
     15 CAL          0.1690    -2.7800     1.7480 ca         1 NHX      -0.125000
     16 CAM          0.8800    -6.1580     0.3590 ca         1 NHX      -0.115000
     17 CAN         -1.4950    -5.5280    -0.9700 ca         1 NHX      -0.115000
     18 CAO          0.7970    -3.9740     1.5230 ca         1 NHX      -0.109000
     19 CAP         -1.5640    -3.3440     0.1890 ca         1 NHX      -0.107000
     20 CAQ          2.8970     1.7040    -1.5000 c3         1 NHX      -0.147400
     21 CAR         -1.6870    -1.1120     1.3060 c3         1 NHX      -0.040100
     22 CAS          1.9970     2.7260     0.6680 c3         1 NHX      -0.077400
     23 NAT          5.1120     2.5140    -1.8980 ns         1 NHX      -0.459400
     24 NAV          0.1030     0.1930     0.2850 ns         1 NHX      -0.547900
     25 CAX          4.3890     1.5440    -1.3060 c          1 NHX       0.670100
     26 CAY          0.6720     1.0710    -0.5620 c          1 NHX       0.668100
     27 CAZ         -2.1040     1.2050     0.4920 c          1 NHX       0.656100
     28 CBA         -1.0280    -2.4440     1.0740 ca         1 NHX      -0.083300
     29 CBB          0.2600    -4.9110     0.6120 ca         1 NHX      -0.035000
     30 CBC         -0.9450    -4.5890    -0.0650 ca         1 NHX      -0.034000
     31 CBD          3.3000     3.2060     1.3100 c3         1 NHX      -0.059700
     32 CBF          2.0940     1.4710    -0.2180 c3         1 NHX      -0.127700
     33 CBG         -1.3090    -0.0780     0.2370 c3         1 NHX       0.040700
     34 HN          -3.3870     0.6690    -0.9930 hn         1 NHX       0.342500
     35 HA          -4.2510     2.6760     0.9290 h1         1 NHX       0.075700
     36 HB          -4.2930     4.5170    -0.7510 hc         1 NHX       0.052367
     37 HBA         -2.6430     3.9760    -0.4460 hc         1 NHX       0.052367
     38 HBB         -3.4750     3.4760    -1.9230 hc         1 NHX       0.052367
     39 HAA          3.9760     4.9360     2.4410 hc         1 NHX       0.035367
     40 HAAA         2.6870     5.2940     1.2910 hc         1 NHX       0.035367
     41 HAAB         2.3190     4.4490     2.7950 hc         1 NHX       0.035367
     42 HAB          4.7830     2.5580     2.7530 hc         1 NHX       0.035367
     43 HABA         3.1460     2.0130     3.1120 hc         1 NHX       0.035367
     44 HABB         4.0850     1.2340     1.8350 hc         1 NHX       0.035367
     45 HNAD        -7.4290     2.5880    -0.6660 hn         1 NHX       0.318000
     46 HNAA        -6.4110     3.4620     0.4090 hn         1 NHX       0.318000
     47 HOAI         6.8370     2.1310    -2.5280 ho         1 NHX       0.405000
     48 HAJ          0.8050    -7.9980    -0.7080 ha         1 NHX       0.132000
     49 HAK         -1.3040    -7.4380    -1.8860 ha         1 NHX       0.132000
     50 HAL          0.5880    -2.0870     2.4690 ha         1 NHX       0.126000
     51 HAM          1.8020    -6.4000     0.8740 ha         1 NHX       0.132000
     52 HAN         -2.4180    -5.2850    -1.4820 ha         1 NHX       0.132000
     53 HAO          1.7140    -4.2130     2.0470 ha         1 NHX       0.134000
     54 HAP         -2.4880    -3.1090    -0.3290 ha         1 NHX       0.131000
     55 HAQ          2.6470     2.6750    -1.9310 hc         1 NHX       0.073700
     56 HAQA         2.6220     0.9580    -2.2510 hc         1 NHX       0.073700
     57 HAR         -2.7720    -1.2280     1.2980 hc         1 NHX       0.064700
     58 HARA        -1.4190    -0.7210     2.2910 hc         1 NHX       0.064700
     59 HAS          1.2700     2.5410     1.4670 hc         1 NHX       0.055200
     60 HASA         1.5770     3.5350     0.0620 hc         1 NHX       0.055200
     61 HNAT         4.6980     3.3700    -2.2370 hn         1 NHX       0.337500
     62 HNAV         0.6150    -0.0810     1.1090 hn         1 NHX       0.324500
     63 HBD          4.0470     3.3730     0.5270 hc         1 NHX       0.044700
     64 HBF          2.5580     0.6590     0.3470 hc         1 NHX       0.081700
     65 HBG         -1.5650    -0.4830    -0.7480 h1         1 NHX       0.080700
@<TRIPOS>BOND
     1     1     3 2   
     2     1     4 1   
     3     1     8 1   
     4     2     4 1   
     5     2    27 1   
     6     2    34 1   
     7     4     5 1   
     8     4    35 1   
     9     5    36 1   
    10     5    37 1   
    11     5    38 1   
    12     6    31 1   
    13     6    39 1   
    14     6    40 1   
    15     6    41 1   
    16     7    31 1   
    17     7    42 1   
    18     7    43 1   
    19     7    44 1   
    20     8    45 1   
    21     8    46 1   
    22     9    25 2   
    23    10    26 2   
    24    11    27 2   
    25    12    23 1   
    26    12    47 1   
    27    13    14 ar  
    28    13    16 ar  
    29    13    48 1   
    30    14    17 ar  
    31    14    49 1   
    32    15    18 ar  
    33    15    28 ar  
    34    15    50 1   
    35    16    29 ar  
    36    16    51 1   
    37    17    30 ar  
    38    17    52 1   
    39    18    29 ar  
    40    18    53 1   
    41    19    28 ar  
    42    19    30 ar  
    43    19    54 1   
    44    20    25 1   
    45    20    32 1   
    46    20    55 1   
    47    20    56 1   
    48    21    28 1   
    49    21    33 1   
    50    21    57 1   
    51    21    58 1   
    52    22    31 1   
    53    22    32 1   
    54    22    59 1   
    55    22    60 1   
    56    23    25 1   
    57    23    61 1   
    58    24    26 1   
    59    24    33 1   
    60    24    62 1   
    61    26    32 1   
    62    27    33 1   
    63    29    30 ar  
    64    31    63 1   
    65    32    64 1   
    66    33    65 1   
@<TRIPOS>SUBSTRUCTURE
     1 NHX         1 TEMP              0 ****  ****    0 ROOT
