@<TRIPOS>MOLECULE
NI0
   63    65     1     0     0
SMALL
No Charge or Current Charge


@<TRIPOS>ATOM
      1 CAQ         -3.5240    -0.8530    -0.5450 c6         1 NI0       0.187800
      2 CAO         -4.6100    -0.6970    -1.6550 c6         1 NI0       0.164300
      3 NBC         -5.8930    -1.3750    -1.2970 n3         1 NI0      -0.720600
      4 CAD         -6.9190    -1.2560    -2.3550 c3         1 NI0       0.153100
      5 CAP         -6.3720    -0.8880     0.0320 c6         1 NI0       0.164300
      6 CAR         -5.2920    -1.0510     1.1450 c6         1 NI0       0.187800
      7 NBD         -4.0070    -0.3860     0.7880 n3         1 NI0      -0.708500
      8 SBE         -2.8510    -0.4080     2.0330 sy         1 NI0       1.157600
      9 OAF         -3.3800     0.4670     3.0850 o          1 NI0      -0.533500
     10 OAG         -2.5020    -1.8100     2.2840 o          1 NI0      -0.533500
     11 CAV         -1.4600     0.4450     1.2800 ca         1 NI0      -0.360500
     12 CAJ         -0.2950    -0.2610     0.9300 ca         1 NI0       0.043000
     13 CAH         -1.5500     1.8250     1.0380 ca         1 NI0       0.048000
     14 CAI         -0.4730     2.5000     0.4450 ca         1 NI0      -0.237000
     15 CAX          0.7010     1.8010     0.0910 ca         1 NI0       0.251100
     16 OAU          1.7640     2.4330    -0.5240 os         1 NI0      -0.323100
     17 CAN          1.7850     3.8460    -0.7770 c3         1 NI0       0.162600
     18 CAK          3.1400     4.1750    -1.4320 c3         1 NI0      -0.082400
     19 CAA          3.3060     5.6730    -1.7570 c3         1 NI0      -0.090100
     20 CAY          0.7890     0.4150     0.3330 ca         1 NI0      -0.217900
     21 CAZ          1.9970    -0.3240    -0.0060 cc         1 NI0       0.562500
     22 NAS          3.1680     0.0070     0.5240 nd         1 NI0      -0.624300
     23 NAT          1.8190    -1.3560    -0.8650 ns         1 NI0      -0.406400
     24 CBB          2.8030    -2.1530    -1.3080 c          1 NI0       0.560200
     25 OAE          2.5700    -3.0640    -2.0870 o          1 NI0      -0.552000
     26 CBA          4.1250    -1.8000    -0.7610 cc         1 NI0      -0.246400
     27 CAM          5.2690    -2.6730    -1.2560 c3         1 NI0      -0.016200
     28 CAC          5.4580    -3.9430    -0.4050 c3         1 NI0      -0.087100
     29 CAW          4.2810    -0.7450     0.1360 cd         1 NI0       0.190400
     30 CAL          5.5990    -0.3240     0.7510 c3         1 NI0      -0.033200
     31 CAB          6.3270     0.7500    -0.0830 c3         1 NI0      -0.084100
     32 H1          -3.2280    -1.9110    -0.4930 h1         1 NI0       0.059200
     33 H2          -2.6390    -0.2870    -0.8680 h1         1 NI0       0.059200
     34 H3          -4.7840     0.3770    -1.8200 h1         1 NI0       0.045950
     35 H4          -4.2120    -1.1050    -2.5950 h1         1 NI0       0.045950
     36 H6          -6.5470    -1.6700    -3.3020 h1         1 NI0       0.034367
     37 H7          -7.8270    -1.8080    -2.0780 h1         1 NI0       0.034367
     38 H8          -7.1920    -0.2060    -2.5210 h1         1 NI0       0.034367
     39 H9          -6.6490     0.1750    -0.0310 h1         1 NI0       0.045950
     40 H10         -7.2750    -1.4370     0.3370 h1         1 NI0       0.045950
     41 H11         -5.6960    -0.6330     2.0790 h1         1 NI0       0.059200
     42 H12         -5.1300    -2.1250     1.3170 h1         1 NI0       0.059200
     43 H13         -0.2200    -1.3310     1.1280 ha         1 NI0       0.144000
     44 H14         -2.4530     2.3750     1.3010 ha         1 NI0       0.136000
     45 H15         -0.5720     3.5650     0.2620 ha         1 NI0       0.128000
     46 H16          0.9700     4.1330    -1.4540 h1         1 NI0       0.041200
     47 H17          3.9500     3.8620    -0.7620 hc         1 NI0       0.060200
     48 H18          4.2820     5.8580    -2.2210 hc         1 NI0       0.038700
     49 H19          2.5270     6.0080    -2.4530 hc         1 NI0       0.038700
     50 H20          3.2390     6.2780    -0.8450 hc         1 NI0       0.038700
     51 H21          0.8950    -1.5400    -1.2240 hn         1 NI0       0.328500
     52 H22          5.1110    -2.9670    -2.3010 hc         1 NI0       0.052200
     53 H23          6.2100    -2.1110    -1.2640 hc         1 NI0       0.052200
     54 H24          4.5560    -4.5660    -0.4310 hc         1 NI0       0.035700
     55 H25          6.2970    -4.5380    -0.7870 hc         1 NI0       0.035700
     56 H26          5.6680    -3.6830     0.6390 hc         1 NI0       0.035700
     57 H27          5.4290     0.0750     1.7580 hc         1 NI0       0.060200
     58 H28          6.2600    -1.1870     0.8880 hc         1 NI0       0.060200
     59 H29          6.5470     0.3770    -1.0910 hc         1 NI0       0.037367
     60 H30          5.7090     1.6510    -0.1770 hc         1 NI0       0.037367
     61 H31          7.2740     1.0290     0.3940 hc         1 NI0       0.037367
     62 H5           1.6840     4.4100     0.1600 h1         1 NI0       0.041200
     63 H32          3.2440     3.5940    -2.3570 hc         1 NI0       0.060200
@<TRIPOS>BOND
     1     1     2 1   
     2     1     7 1   
     3     1    32 1   
     4     1    33 1   
     5     2     3 1   
     6     2    34 1   
     7     2    35 1   
     8     3     4 1   
     9     3     5 1   
    10     4    36 1   
    11     4    37 1   
    12     4    38 1   
    13     5     6 1   
    14     5    39 1   
    15     5    40 1   
    16     6     7 1   
    17     6    41 1   
    18     6    42 1   
    19     7     8 1   
    20     8     9 2   
    21     8    10 2   
    22     8    11 1   
    23    11    12 ar  
    24    11    13 ar  
    25    12    20 ar  
    26    12    43 1   
    27    13    14 ar  
    28    13    44 1   
    29    14    15 ar  
    30    14    45 1   
    31    15    16 1   
    32    15    20 ar  
    33    16    17 1   
    34    17    18 1   
    35    17    46 1   
    36    17    62 1   
    37    18    19 1   
    38    18    47 1   
    39    18    63 1   
    40    19    48 1   
    41    19    49 1   
    42    19    50 1   
    43    20    21 1   
    44    21    22 2   
    45    21    23 1   
    46    22    29 1   
    47    23    24 1   
    48    23    51 1   
    49    24    25 2   
    50    24    26 1   
    51    26    27 1   
    52    26    29 2   
    53    27    28 1   
    54    27    52 1   
    55    27    53 1   
    56    28    54 1   
    57    28    55 1   
    58    28    56 1   
    59    29    30 1   
    60    30    31 1   
    61    30    57 1   
    62    30    58 1   
    63    31    59 1   
    64    31    60 1   
    65    31    61 1   
@<TRIPOS>SUBSTRUCTURE
     1 NI0         1 TEMP              0 ****  ****    0 ROOT
