@<TRIPOS>MOLECULE
NI0
   63    65     1     0     0
SMALL
abcg2


@<TRIPOS>ATOM
      1 CAQ         -4.6620     0.8200     0.1300 c6         1 NI0       0.187800
      2 CAO         -5.7870     0.2430    -0.7090 c6         1 NI0       0.164300
      3 NBC         -5.2800    -0.7320    -1.6500 n3         1 NI0      -0.720600
      4 CAD         -6.3150    -1.2160    -2.5360 c3         1 NI0       0.153100
      5 CAP         -4.6290    -1.8150    -0.9450 c6         1 NI0       0.164300
      6 CAR         -3.4810    -1.2920    -0.1030 c6         1 NI0       0.187800
      7 NBD         -3.9860    -0.2780     0.8250 n3         1 NI0      -0.708500
      8 SBE         -2.9780     0.1340     2.0720 sy         1 NI0       1.157600
      9 OAF         -3.6450     1.1770     2.8320 o          1 NI0      -0.533500
     10 OAG         -2.5960    -1.1040     2.7310 o          1 NI0      -0.533500
     11 CAV         -1.5310     0.8260     1.3370 ca         1 NI0      -0.360500
     12 CAJ         -0.4600    -0.0010     1.0180 ca         1 NI0       0.043000
     13 CAH         -1.4840     2.1780     1.0290 ca         1 NI0       0.048000
     14 CAI         -0.3750     2.7060     0.3920 ca         1 NI0      -0.237000
     15 CAX          0.7060     1.8870     0.0640 ca         1 NI0       0.251100
     16 OAU          1.7950     2.3050    -0.5700 os         1 NI0      -0.323100
     17 CAN          1.9070     3.6660    -0.9780 c3         1 NI0       0.162600
     18 CAK          3.2530     3.8380    -1.6490 c3         1 NI0      -0.082400
     19 CAA          3.4480     5.2690    -2.1310 c3         1 NI0      -0.090100
     20 CAY          0.6590     0.5210     0.3950 ca         1 NI0      -0.217900
     21 CAZ          1.8020    -0.3650     0.0860 cc         1 NI0       0.562500
     22 NAS          2.9750    -0.1150     0.5560 nd         1 NI0      -0.624300
     23 NAT          1.5400    -1.4510    -0.6720 ns         1 NI0      -0.406400
     24 CBB          2.4920    -2.3980    -1.0130 c          1 NI0       0.560200
     25 OAE          2.1770    -3.3680    -1.6890 o          1 NI0      -0.552000
     26 CBA          3.8130    -2.0990    -0.5150 cc         1 NI0      -0.246400
     27 CAM          4.9090    -3.0660    -0.8520 c3         1 NI0      -0.016200
     28 CAC          4.9930    -4.2190     0.1470 c3         1 NI0      -0.087100
     29 CAW          3.9870    -0.9830     0.2560 cd         1 NI0       0.190400
     30 CAL          5.3180    -0.5750     0.8160 c3         1 NI0      -0.033200
     31 CAB          6.0050     0.4500    -0.0870 c3         1 NI0      -0.084100
     32 H1          -3.9640     1.3680    -0.5150 h1         1 NI0       0.059200
     33 H2          -5.0850     1.5120     0.8540 h1         1 NI0       0.059200
     34 H3          -6.5500    -0.1890    -0.0400 h1         1 NI0       0.045950
     35 H4          -6.2600     1.0620    -1.2560 h1         1 NI0       0.045950
     36 H6          -6.7690    -0.3800    -3.0690 h1         1 NI0       0.034367
     37 H7          -5.8840    -1.8920    -3.2760 h1         1 NI0       0.034367
     38 H8          -7.1170    -1.7580    -2.0120 h1         1 NI0       0.034367
     39 H9          -5.3310    -2.3670    -0.2980 h1         1 NI0       0.045950
     40 H10         -4.2220    -2.5250    -1.6670 h1         1 NI0       0.045950
     41 H11         -3.0430    -2.1190     0.4530 h1         1 NI0       0.059200
     42 H12         -2.7120    -0.8670    -0.7600 h1         1 NI0       0.059200
     43 H13         -0.4820    -1.0520     1.2800 ha         1 NI0       0.144000
     44 H14         -2.3040     2.8360     1.2840 ha         1 NI0       0.136000
     45 H15         -0.3650     3.7610     0.1570 ha         1 NI0       0.128000
     46 H16          1.0950     3.9140    -1.6710 h1         1 NI0       0.041200
     47 H17          4.0430     3.5740    -0.9410 hc         1 NI0       0.060200
     48 H18          4.4280     5.3910    -2.5900 hc         1 NI0       0.038700
     49 H19          2.6990     5.5460    -2.8740 hc         1 NI0       0.038700
     50 H20          3.3770     5.9800    -1.3070 hc         1 NI0       0.038700
     51 H21          0.6060    -1.5860    -1.0400 hn         1 NI0       0.328500
     52 H22          4.7370    -3.4670    -1.8520 hc         1 NI0       0.052200
     53 H23          5.8680    -2.5490    -0.8980 hc         1 NI0       0.052200
     54 H24          4.0550    -4.7730     0.1860 hc         1 NI0       0.035700
     55 H25          5.7820    -4.9190    -0.1300 hc         1 NI0       0.035700
     56 H26          5.2080    -3.8530     1.1520 hc         1 NI0       0.035700
     57 H27          5.1520    -0.1350     1.8000 hc         1 NI0       0.060200
     58 H28          5.9680    -1.4370     0.9620 hc         1 NI0       0.060200
     59 H29          6.2160     0.0310    -1.0720 hc         1 NI0       0.037367
     60 H30          5.3800     1.3330    -0.2250 hc         1 NI0       0.037367
     61 H31          6.9500     0.7720     0.3510 hc         1 NI0       0.037367
     62 H5           1.8250     4.3290    -0.1110 h1         1 NI0       0.041200
     63 H32          3.3320     3.1460    -2.4900 hc         1 NI0       0.060200
@<TRIPOS>BOND
     1     1     2 1   
     2     1     7 1   
     3     1    32 1   
     4     1    33 1   
     5     2     3 1   
     6     2    34 1   
     7     2    35 1   
     8     3     4 1   
     9     3     5 1   
    10     4    36 1   
    11     4    37 1   
    12     4    38 1   
    13     5     6 1   
    14     5    39 1   
    15     5    40 1   
    16     6     7 1   
    17     6    41 1   
    18     6    42 1   
    19     7     8 1   
    20     8     9 2   
    21     8    10 2   
    22     8    11 1   
    23    11    12 ar  
    24    11    13 ar  
    25    12    20 ar  
    26    12    43 1   
    27    13    14 ar  
    28    13    44 1   
    29    14    15 ar  
    30    14    45 1   
    31    15    16 1   
    32    15    20 ar  
    33    16    17 1   
    34    17    18 1   
    35    17    46 1   
    36    17    62 1   
    37    18    19 1   
    38    18    47 1   
    39    18    63 1   
    40    19    48 1   
    41    19    49 1   
    42    19    50 1   
    43    20    21 1   
    44    21    22 2   
    45    21    23 1   
    46    22    29 1   
    47    23    24 1   
    48    23    51 1   
    49    24    25 2   
    50    24    26 1   
    51    26    27 1   
    52    26    29 2   
    53    27    28 1   
    54    27    52 1   
    55    27    53 1   
    56    28    54 1   
    57    28    55 1   
    58    28    56 1   
    59    29    30 1   
    60    30    31 1   
    61    30    57 1   
    62    30    58 1   
    63    31    59 1   
    64    31    60 1   
    65    31    61 1   
@<TRIPOS>SUBSTRUCTURE
     1 NI0         1 TEMP              0 ****  ****    0 ROOT
