@<TRIPOS>MOLECULE
NI4
   50    52     1     0     0
SMALL
No Charge or Current Charge


@<TRIPOS>ATOM
      1 C17        -44.2160     8.4600    19.2590 ca         1 NI4      -0.149800
      2 C20        -47.0070     8.0110    18.9110 ca         1 NI4       0.364000
      3 C21        -46.1610     6.9800    19.3590 ca         1 NI4      -0.213000
      4 C22        -44.7830     7.1980    19.5310 ca         1 NI4      -0.020500
      5 C24        -49.1770     8.4880    17.6820 c3         1 NI4       0.221800
      6 C01        -39.3940     2.2660    22.1530 ca         1 NI4      -0.089500
      7 C02        -40.6870     2.8310    22.1940 ca         1 NI4      -0.069800
      8 C03        -41.7300     2.1050    22.8060 ca         1 NI4      -0.089500
      9 C04        -41.4860     0.8400    23.3690 ca         1 NI4      -0.114500
     10 C05        -40.1960     0.2870    23.3250 ca         1 NI4      -0.098000
     11 C06        -39.1510     1.0000    22.7160 ca         1 NI4      -0.114500
     12 C07        -40.9800     4.1720    21.6060 ce         1 NI4      -0.095200
     13 C09        -40.4370     6.3970    20.5050 cd         1 NI4       0.494200
     14 N10        -41.7060     6.6890    20.2190 nc         1 NI4      -0.600300
     15 C11        -41.6760     8.0140    19.8280 cc         1 NI4      -0.046600
     16 C12        -40.3130     8.5670    19.9070 c          1 NI4       0.540200
     17 N13        -39.6020     7.4800    20.3570 n          1 NI4      -0.357300
     18 C14        -38.1560     7.5000    20.6380 c3         1 NI4       0.100300
     19 O15        -39.8930     9.6890    19.6530 o          1 NI4      -0.525000
     20 C16        -42.7680     8.7430    19.4250 cf         1 NI4       0.000800
     21 C18        -45.0640     9.4930    18.8120 ca         1 NI4      -0.020500
     22 C19        -46.4410     9.2700    18.6400 ca         1 NI4      -0.213000
     23 N23        -48.3980     7.7870    18.7400 nh         1 NI4      -0.821400
     24 C25        -50.0470     9.6680    18.1960 c3         1 NI4       0.130600
     25 O26        -50.7500    10.3000    17.1120 oh         1 NI4      -0.661000
     26 C27        -49.1140     6.7540    19.5260 c3         1 NI4       0.212100
     27 H1         -46.5620     5.9940    19.5670 ha         1 NI4       0.115000
     28 H2         -44.1710     6.3710    19.8750 ha         1 NI4       0.125000
     29 H3         -49.8370     7.7680    17.1800 h1         1 NI4       0.065200
     30 H4         -48.4990     8.8670    16.9050 h1         1 NI4       0.065200
     31 H6         -42.7340     2.5200    22.8490 ha         1 NI4       0.113500
     32 H7         -42.2980     0.2890    23.8390 ha         1 NI4       0.114500
     33 H8         -40.0070    -0.6930    23.7600 ha         1 NI4       0.114000
     34 H9         -38.1520     0.5730    22.6790 ha         1 NI4       0.114500
     35 H10        -42.0370     4.4450    21.6440 ha         1 NI4       0.195000
     36 H12        -37.6280     6.8970    19.8890 h1         1 NI4       0.048367
     37 H13        -37.7720     8.5270    20.6060 h1         1 NI4       0.048367
     38 H14        -37.9680     7.0830    21.6350 h1         1 NI4       0.048367
     39 H15        -42.5000     9.7700    19.1690 ha         1 NI4       0.188000
     40 H16        -44.6590    10.4800    18.5950 ha         1 NI4       0.125000
     41 H17        -47.0640    10.0910    18.3050 ha         1 NI4       0.115000
     42 H18        -49.4010    10.3970    18.7020 h1         1 NI4       0.026700
     43 H19        -50.7620     9.2880    18.9380 h1         1 NI4       0.026700
     44 H20        -51.2810    11.0320    17.5000 ho         1 NI4       0.449000
     45 H21        -48.7480     6.7350    20.5620 h1         1 NI4       0.039700
     46 H22        -50.1910     6.9650    19.5590 h1         1 NI4       0.039700
     47 H23        -48.9690     5.7610    19.0800 h1         1 NI4       0.039700
     48 C08        -40.1220     5.0770    21.0470 cf         1 NI4      -0.275600
     49 H5         -38.5690     2.7950    21.6850 ha         1 NI4       0.113500
     50 H11        -39.0610     4.8420    21.0260 ha         1 NI4       0.183000
@<TRIPOS>BOND
     1     1     4 ar  
     2     1    20 1   
     3     1    21 ar  
     4     2     3 ar  
     5     2    22 ar  
     6     2    23 1   
     7     3     4 ar  
     8     3    27 1   
     9     4    28 1   
    10     5    23 1   
    11     5    24 1   
    12     5    29 1   
    13     5    30 1   
    14     6     7 ar  
    15     6    11 ar  
    16     6    49 1   
    17     7     8 ar  
    18     7    12 1   
    19     8     9 ar  
    20     8    31 1   
    21     9    10 ar  
    22     9    32 1   
    23    10    11 ar  
    24    10    33 1   
    25    11    34 1   
    26    12    35 1   
    27    12    48 2   
    28    13    14 2   
    29    13    17 1   
    30    13    48 1   
    31    14    15 1   
    32    15    16 1   
    33    15    20 2   
    34    16    17 1   
    35    16    19 2   
    36    17    18 1   
    37    18    36 1   
    38    18    37 1   
    39    18    38 1   
    40    20    39 1   
    41    21    22 ar  
    42    21    40 1   
    43    22    41 1   
    44    23    26 1   
    45    24    25 1   
    46    24    42 1   
    47    24    43 1   
    48    25    44 1   
    49    26    45 1   
    50    26    46 1   
    51    26    47 1   
    52    48    50 1   
@<TRIPOS>SUBSTRUCTURE
     1 NI4         1 TEMP              0 ****  ****    0 ROOT
