@<TRIPOS>MOLECULE
NI4
   50    52     1     0     0
SMALL
abcg2


@<TRIPOS>ATOM
      1 C17        -44.1600     8.3730    18.9070 ca         1 NI4      -0.149800
      2 C20        -46.9520     7.8790    18.5700 ca         1 NI4       0.364000
      3 C21        -46.0880     6.9130    19.1360 ca         1 NI4      -0.213000
      4 C22        -44.7430     7.1560    19.2970 ca         1 NI4      -0.020500
      5 C24        -49.1950     8.6360    17.9390 c3         1 NI4       0.221800
      6 C01        -39.5400     2.5520    22.5140 ca         1 NI4      -0.089500
      7 C02        -40.8310     2.9860    22.1890 ca         1 NI4      -0.069800
      8 C03        -41.9110     2.1580    22.5110 ca         1 NI4      -0.089500
      9 C04        -41.7150     0.9410    23.1450 ca         1 NI4      -0.114500
     10 C05        -40.4300     0.5260    23.4650 ca         1 NI4      -0.098000
     11 C06        -39.3440     1.3360    23.1450 ca         1 NI4      -0.114500
     12 C07        -41.1090     4.2570    21.5360 ce         1 NI4      -0.095200
     13 C09        -40.6210     6.4450    20.5780 cd         1 NI4       0.494200
     14 N10        -41.8190     6.7190    20.1640 nc         1 NI4      -0.600300
     15 C11        -41.7640     7.9860    19.6170 cc         1 NI4      -0.046600
     16 C12        -40.3840     8.4970    19.7220 c          1 NI4       0.540200
     17 N13        -39.7160     7.4640    20.3450 n          1 NI4      -0.357300
     18 C14        -38.3180     7.4790    20.7010 c3         1 NI4       0.100300
     19 O15        -39.9000     9.5570    19.3700 o          1 NI4      -0.525000
     20 C16        -42.7730     8.7060    19.0670 cf         1 NI4       0.000800
     21 C18        -45.0200     9.3260    18.3370 ca         1 NI4      -0.020500
     22 C19        -46.3670     9.1010    18.1720 ca         1 NI4      -0.213000
     23 N23        -48.2790     7.6240    18.4180 nh         1 NI4      -0.821400
     24 C25        -49.6350     9.5830    19.0490 c3         1 NI4       0.130600
     25 O26        -50.5230    10.5210    18.4890 oh         1 NI4      -0.661000
     26 C27        -48.8450     6.4060    18.9580 c3         1 NI4       0.212100
     27 H1         -46.4720     5.9570    19.4590 ha         1 NI4       0.115000
     28 H2         -44.1270     6.3860    19.7400 ha         1 NI4       0.125000
     29 H3         -50.0680     8.1330    17.5210 h1         1 NI4       0.065200
     30 H4         -48.7480     9.1970    17.1170 h1         1 NI4       0.065200
     31 H6         -42.9160     2.4780    22.2640 ha         1 NI4       0.113500
     32 H7         -42.5650     0.3170    23.3880 ha         1 NI4       0.114500
     33 H8         -40.2710    -0.4230    23.9600 ha         1 NI4       0.114000
     34 H9         -38.3400     1.0150    23.3880 ha         1 NI4       0.114500
     35 H10        -42.1520     4.4340    21.2910 ha         1 NI4       0.195000
     36 H12        -37.7660     6.7050    20.1690 h1         1 NI4       0.048367
     37 H13        -37.9060     8.4470    20.4270 h1         1 NI4       0.048367
     38 H14        -38.1850     7.3390    21.7720 h1         1 NI4       0.048367
     39 H15        -42.4860     9.6870    18.7010 ha         1 NI4       0.188000
     40 H16        -44.6140    10.2800    18.0200 ha         1 NI4       0.125000
     41 H17        -46.9640     9.8910    17.7380 ha         1 NI4       0.115000
     42 H18        -48.7520    10.0660    19.4860 h1         1 NI4       0.026700
     43 H19        -50.1060     8.9970    19.8490 h1         1 NI4       0.026700
     44 H20        -50.8040    11.1230    19.1840 ho         1 NI4       0.449000
     45 H21        -48.6980     6.3210    20.0370 h1         1 NI4       0.039700
     46 H22        -49.9150     6.3960    18.7670 h1         1 NI4       0.039700
     47 H23        -48.4190     5.5180    18.4860 h1         1 NI4       0.039700
     48 C08        -40.2210     5.2150    21.2270 cf         1 NI4      -0.275600
     49 H5         -38.6790     3.1600    22.2700 ha         1 NI4       0.113500
     50 H11        -39.1710     5.0990    21.4640 ha         1 NI4       0.183000
@<TRIPOS>BOND
     1     1     4 ar  
     2     1    20 1   
     3     1    21 ar  
     4     2     3 ar  
     5     2    22 ar  
     6     2    23 1   
     7     3     4 ar  
     8     3    27 1   
     9     4    28 1   
    10     5    23 1   
    11     5    24 1   
    12     5    29 1   
    13     5    30 1   
    14     6     7 ar  
    15     6    11 ar  
    16     6    49 1   
    17     7     8 ar  
    18     7    12 1   
    19     8     9 ar  
    20     8    31 1   
    21     9    10 ar  
    22     9    32 1   
    23    10    11 ar  
    24    10    33 1   
    25    11    34 1   
    26    12    35 1   
    27    12    48 2   
    28    13    14 2   
    29    13    17 1   
    30    13    48 1   
    31    14    15 1   
    32    15    16 1   
    33    15    20 2   
    34    16    17 1   
    35    16    19 2   
    36    17    18 1   
    37    18    36 1   
    38    18    37 1   
    39    18    38 1   
    40    20    39 1   
    41    21    22 ar  
    42    21    40 1   
    43    22    41 1   
    44    23    26 1   
    45    24    25 1   
    46    24    42 1   
    47    24    43 1   
    48    25    44 1   
    49    26    45 1   
    50    26    46 1   
    51    26    47 1   
    52    48    50 1   
@<TRIPOS>SUBSTRUCTURE
     1 NI4         1 TEMP              0 ****  ****    0 ROOT
