@<TRIPOS>MOLECULE
NI5
   58    61     1     0     0
SMALL
No Charge or Current Charge


@<TRIPOS>ATOM
      1 CAP         -4.6430    -1.4740     0.5520 c6         1 NI5       0.204800
      2 CAN         -5.7900    -0.5710     1.1160 c6         1 NI5       0.131300
      3 NBB         -5.4480     0.0220     2.4460 n3         1 NI5      -0.704600
      4 CAB         -6.5300     0.8680     2.9930 c3         1 NI5       0.148100
      5 CAO         -4.1310     0.7300     2.3860 c6         1 NI5       0.131300
      6 CAQ         -2.9950    -0.1880     1.8300 c6         1 NI5       0.204800
      7 NBC         -3.3280    -0.7710     0.4950 n3         1 NI5      -0.743500
      8 SBD         -3.0710     0.2090    -0.8750 sy         1 NI5       1.177600
      9 OAD         -2.9930    -0.7170    -2.0100 o          1 NI5      -0.537000
     10 OAE         -4.0290     1.3180    -0.8350 o          1 NI5      -0.537000
     11 CAU         -1.4090     0.8270    -0.5900 ca         1 NI5      -0.355500
     12 CAH         -0.3210    -0.0620    -0.6580 ca         1 NI5       0.043000
     13 CAF         -1.1970     2.1810    -0.2810 ca         1 NI5       0.046000
     14 CAG          0.1070     2.6440    -0.0460 ca         1 NI5      -0.239000
     15 CAW          1.2040     1.7590    -0.1140 ca         1 NI5       0.250100
     16 OAT          2.5010     2.1950     0.0800 os         1 NI5      -0.321100
     17 CAK          2.8180     3.5560     0.4100 c3         1 NI5       0.161600
     18 CAI          4.3480     3.6490     0.5640 c3         1 NI5      -0.082400
     19 CAA          4.8330     5.0670     0.9260 c3         1 NI5      -0.091100
     20 CAX          0.9880     0.4010    -0.4210 ca         1 NI5      -0.222900
     21 CAY          2.0990    -0.5370    -0.4790 cc         1 NI5       0.562500
     22 NAR          2.8600    -0.7620     0.5930 nd         1 NI5      -0.613300
     23 CAV          3.8780    -1.6900     0.3970 cd         1 NI5       0.171400
     24 CAL          4.9090    -2.1460     1.3980 c5         1 NI5      -0.036200
     25 CAJ          5.4890    -3.4670     0.7870 c5         1 NI5      -0.083400
     26 CAM          5.2380    -3.2740    -0.7390 c5         1 NI5      -0.011200
     27 CAZ          4.0780    -2.3240    -0.7970 cc         1 NI5      -0.270400
     28 CBA          3.2260    -2.0660    -1.9520 c          1 NI5       0.577200
     29 OAC          3.3450    -2.5920    -3.0460 o          1 NI5      -0.541000
     30 NAS          2.2640    -1.1580    -1.6850 ns         1 NI5      -0.405400
     31 H1          -4.5580    -2.3500     1.2120 h1         1 NI5       0.075950
     32 H2          -4.9330    -1.8610    -0.4360 h1         1 NI5       0.075950
     33 H3          -6.0130     0.2250     0.3910 h1         1 NI5       0.041950
     34 H4          -6.7010    -1.1810     1.2000 h1         1 NI5       0.041950
     35 H6          -7.4640     0.2960     3.0770 h1         1 NI5       0.035033
     36 H7          -6.2670     1.2350     3.9940 h1         1 NI5       0.035033
     37 H8          -6.7150     1.7360     2.3450 h1         1 NI5       0.035033
     38 H9          -4.2090     1.6290     1.7570 h1         1 NI5       0.041950
     39 H10         -3.8410     1.0720     3.3900 h1         1 NI5       0.041950
     40 H11         -2.0480     0.3690     1.8180 h1         1 NI5       0.075950
     41 H12         -2.8510    -1.0030     2.5540 h1         1 NI5       0.075950
     42 H13         -0.4950    -1.1160    -0.8770 ha         1 NI5       0.143000
     43 H14         -2.0320     2.8780    -0.2220 ha         1 NI5       0.136000
     44 H15          0.2430     3.6960     0.1830 ha         1 NI5       0.128000
     45 H16          2.4870     4.2370    -0.3850 h1         1 NI5       0.040700
     46 H17          2.3360     3.8500     1.3520 h1         1 NI5       0.040700
     47 H18          4.6750     2.9490     1.3430 hc         1 NI5       0.060700
     48 H19          4.8240     3.3350    -0.3730 hc         1 NI5       0.060700
     49 H20          5.9260     5.0840     1.0250 hc         1 NI5       0.038367
     50 H21          4.5480     5.7850     0.1470 hc         1 NI5       0.038367
     51 H22          4.3980     5.3960     1.8770 hc         1 NI5       0.038367
     52 H23          5.6950    -1.3910     1.5150 hc         1 NI5       0.065700
     53 H24          4.4820    -2.3150     2.3920 hc         1 NI5       0.065700
     54 H25          6.5460    -3.6250     1.0320 hc         1 NI5       0.048700
     55 H26          4.9340    -4.3370     1.1590 hc         1 NI5       0.048700
     56 H27          6.1150    -2.8390    -1.2340 hc         1 NI5       0.059700
     57 H28          5.0230    -4.2250    -1.2410 hc         1 NI5       0.059700
     58 H29          1.6460    -0.9220    -2.4440 hn         1 NI5       0.334500
@<TRIPOS>BOND
     1     1     2 1   
     2     1     7 1   
     3     1    31 1   
     4     1    32 1   
     5     2     3 1   
     6     2    33 1   
     7     2    34 1   
     8     3     4 1   
     9     3     5 1   
    10     4    35 1   
    11     4    36 1   
    12     4    37 1   
    13     5     6 1   
    14     5    38 1   
    15     5    39 1   
    16     6     7 1   
    17     6    40 1   
    18     6    41 1   
    19     7     8 1   
    20     8     9 2   
    21     8    10 2   
    22     8    11 1   
    23    11    12 ar  
    24    11    13 ar  
    25    12    20 ar  
    26    12    42 1   
    27    13    14 ar  
    28    13    43 1   
    29    14    15 ar  
    30    14    44 1   
    31    15    16 1   
    32    15    20 ar  
    33    16    17 1   
    34    17    18 1   
    35    17    45 1   
    36    17    46 1   
    37    18    19 1   
    38    18    47 1   
    39    18    48 1   
    40    19    49 1   
    41    19    50 1   
    42    19    51 1   
    43    20    21 1   
    44    21    22 2   
    45    21    30 1   
    46    22    23 1   
    47    23    24 1   
    48    23    27 2   
    49    24    25 1   
    50    24    52 1   
    51    24    53 1   
    52    25    26 1   
    53    25    54 1   
    54    25    55 1   
    55    26    27 1   
    56    26    56 1   
    57    26    57 1   
    58    27    28 1   
    59    28    29 2   
    60    28    30 1   
    61    30    58 1   
@<TRIPOS>SUBSTRUCTURE
     1 NI5         1 TEMP              0 ****  ****    0 ROOT
