@<TRIPOS>MOLECULE
NI5
   58    61     1     0     0
SMALL
abcg2


@<TRIPOS>ATOM
      1 CAP         -4.8180     0.1240     0.5330 c6         1 NI5       0.204800
      2 CAN         -4.0480     0.6780     1.7200 c6         1 NI5       0.131300
      3 NBB         -3.5930    -0.3940     2.5830 n3         1 NI5      -0.704600
      4 CAB         -2.9350     0.1210     3.7620 c3         1 NI5       0.148100
      5 CAO         -2.7310    -1.2980     1.8470 c6         1 NI5       0.131300
      6 CAQ         -3.4720    -1.9030     0.6680 c6         1 NI5       0.204800
      7 NBC         -4.0520    -0.8800    -0.2020 n3         1 NI5      -0.743500
      8 SBD         -3.3170    -0.5020    -1.6190 sy         1 NI5       1.177600
      9 OAD         -2.9400    -1.7590    -2.2440 o          1 NI5      -0.537000
     10 OAE         -4.1990     0.4170    -2.3210 o          1 NI5      -0.537000
     11 CAU         -1.8240     0.3670    -1.2500 ca         1 NI5      -0.355500
     12 CAH         -0.6440    -0.3410    -1.0700 ca         1 NI5       0.043000
     13 CAF         -1.8460     1.7420    -1.0660 ca         1 NI5       0.046000
     14 CAG         -0.6970     2.4100    -0.6850 ca         1 NI5      -0.239000
     15 CAW          0.4920     1.7080    -0.4780 ca         1 NI5       0.250100
     16 OAT          1.6420     2.2760    -0.1340 os         1 NI5      -0.321100
     17 CAK          1.7020     3.6850     0.0730 c3         1 NI5       0.161600
     18 CAI          3.1220     4.0450     0.4530 c3         1 NI5      -0.082400
     19 CAA          3.2540     5.5400     0.7060 c3         1 NI5      -0.091100
     20 CAX          0.5090     0.3150    -0.6720 ca         1 NI5      -0.222900
     21 CAY          1.7460    -0.4630    -0.4560 cc         1 NI5       0.562500
     22 NAR          2.3490    -0.4340     0.6910 nd         1 NI5      -0.613300
     23 CAV          3.4440    -1.2250     0.7930 cd         1 NI5       0.171400
     24 CAL          4.2960    -1.3060     2.0220 c5         1 NI5      -0.036200
     25 CAJ          5.1540    -2.5570     1.7630 c5         1 NI5      -0.083400
     26 CAM          5.1650    -2.7530     0.2320 c5         1 NI5      -0.011200
     27 CAZ          3.9300    -2.0260    -0.1940 cc         1 NI5      -0.270400
     28 CBA          3.2860    -2.0580    -1.4670 c          1 NI5       0.577200
     29 OAC          3.6070    -2.7030    -2.4530 o          1 NI5      -0.541000
     30 NAS          2.1710    -1.2190    -1.4940 ns         1 NI5      -0.405400
     31 H1          -5.7270    -0.3690     0.8880 h1         1 NI5       0.075950
     32 H2          -5.1300     0.9280    -0.1300 h1         1 NI5       0.075950
     33 H3          -3.2060     1.2970     1.3650 h1         1 NI5       0.041950
     34 H4          -4.7140     1.3370     2.2830 h1         1 NI5       0.041950
     35 H6          -3.6170     0.7600     4.3230 h1         1 NI5       0.035033
     36 H7          -2.6380    -0.7040     4.4130 h1         1 NI5       0.035033
     37 H8          -2.0330     0.7090     3.5310 h1         1 NI5       0.035033
     38 H9          -1.8140    -0.7900     1.5010 h1         1 NI5       0.041950
     39 H10         -2.4160    -2.1110     2.5050 h1         1 NI5       0.041950
     40 H11         -2.8170    -2.5610     0.1010 h1         1 NI5       0.075950
     41 H12         -4.3000    -2.5150     1.0360 h1         1 NI5       0.075950
     42 H13         -0.6190    -1.4140    -1.2180 ha         1 NI5       0.143000
     43 H14         -2.7530     2.3110    -1.2210 ha         1 NI5       0.136000
     44 H15         -0.7400     3.4830    -0.5610 ha         1 NI5       0.128000
     45 H16          1.4050     4.2100    -0.8410 h1         1 NI5       0.040700
     46 H17          1.0070     3.9760     0.8680 h1         1 NI5       0.040700
     47 H18          3.4110     3.4880     1.3470 hc         1 NI5       0.060700
     48 H19          3.8010     3.7430    -0.3480 hc         1 NI5       0.060700
     49 H20          4.2780     5.7980     0.9750 hc         1 NI5       0.038367
     50 H21          2.9880     6.1200    -0.1790 hc         1 NI5       0.038367
     51 H22          2.6070     5.8660     1.5220 hc         1 NI5       0.038367
     52 H23          4.9050    -0.3990     2.0970 hc         1 NI5       0.065700
     53 H24          3.7050    -1.3680     2.9360 hc         1 NI5       0.065700
     54 H25          6.1570    -2.4700     2.1780 hc         1 NI5       0.048700
     55 H26          4.6800    -3.4210     2.2320 hc         1 NI5       0.048700
     56 H27          6.0520    -2.3060    -0.2270 hc         1 NI5       0.059700
     57 H28          5.1620    -3.8070    -0.0510 hc         1 NI5       0.059700
     58 H29          1.6670    -1.1620    -2.3720 hn         1 NI5       0.334500
@<TRIPOS>BOND
     1     1     2 1   
     2     1     7 1   
     3     1    31 1   
     4     1    32 1   
     5     2     3 1   
     6     2    33 1   
     7     2    34 1   
     8     3     4 1   
     9     3     5 1   
    10     4    35 1   
    11     4    36 1   
    12     4    37 1   
    13     5     6 1   
    14     5    38 1   
    15     5    39 1   
    16     6     7 1   
    17     6    40 1   
    18     6    41 1   
    19     7     8 1   
    20     8     9 2   
    21     8    10 2   
    22     8    11 1   
    23    11    12 ar  
    24    11    13 ar  
    25    12    20 ar  
    26    12    42 1   
    27    13    14 ar  
    28    13    43 1   
    29    14    15 ar  
    30    14    44 1   
    31    15    16 1   
    32    15    20 ar  
    33    16    17 1   
    34    17    18 1   
    35    17    45 1   
    36    17    46 1   
    37    18    19 1   
    38    18    47 1   
    39    18    48 1   
    40    19    49 1   
    41    19    50 1   
    42    19    51 1   
    43    20    21 1   
    44    21    22 2   
    45    21    30 1   
    46    22    23 1   
    47    23    24 1   
    48    23    27 2   
    49    24    25 1   
    50    24    52 1   
    51    24    53 1   
    52    25    26 1   
    53    25    54 1   
    54    25    55 1   
    55    26    27 1   
    56    26    56 1   
    57    26    57 1   
    58    27    28 1   
    59    28    29 2   
    60    28    30 1   
    61    30    58 1   
@<TRIPOS>SUBSTRUCTURE
     1 NI5         1 TEMP              0 ****  ****    0 ROOT
