@<TRIPOS>MOLECULE
NI7
   48    51     1     0     0
SMALL
No Charge or Current Charge


@<TRIPOS>ATOM
      1 C1           0.7750    -0.7290    -0.1040 c5         1 NI7       0.067700
      2 C2          -0.7550    -0.7380     0.0560 c5         1 NI7       0.067700
      3 N3          -1.2380     0.4150    -0.7600 n          1 NI7      -0.391300
      4 C5          -2.4420     0.3580    -1.6310 c3         1 NI7       0.144800
      5 C6          -3.7110    -0.0230    -0.8770 ca         1 NI7      -0.083300
      6 C7          -4.1570     0.7650     0.2030 ca         1 NI7      -0.125500
      7 C8          -5.3200     0.4140     0.9050 ca         1 NI7       0.140600
      8 O9          -5.7400     1.1830     1.9480 oh         1 NI7      -0.529100
      9 C10         -6.0500    -0.7260     0.5340 ca         1 NI7      -0.200500
     10 C11         -5.6150    -1.5160    -0.5440 ca         1 NI7      -0.071000
     11 C12         -4.4500    -1.1640    -1.2480 ca         1 NI7      -0.144000
     12 C13         -0.6410     1.6710    -0.4560 c          1 NI7       0.484500
     13 O14         -1.0670     2.7240    -0.9260 o          1 NI7      -0.497500
     14 C15          0.6430     1.6530     0.5200 c          1 NI7       0.484500
     15 O16          1.0610     2.6850     1.0400 o          1 NI7      -0.497500
     16 N17          1.2500     0.3890     0.7650 n          1 NI7      -0.391300
     17 C18          2.4580     0.3010     1.6290 c3         1 NI7       0.144800
     18 C19          3.7250    -0.0450     0.8550 ca         1 NI7      -0.083300
     19 C20          4.1650     0.7870    -0.1930 ca         1 NI7      -0.125500
     20 C21          5.3270     0.4680    -0.9130 ca         1 NI7       0.140600
     21 O22          5.7400     1.2810    -1.9260 oh         1 NI7      -0.529100
     22 C23          6.0610    -0.6840    -0.5910 ca         1 NI7      -0.200500
     23 C24          5.6310    -1.5180     0.4550 ca         1 NI7      -0.071000
     24 C25          4.4680    -1.1990     1.1760 ca         1 NI7      -0.144000
     25 C26         -1.0490    -2.1120    -0.6110 c5         1 NI7       0.152300
     26 N27          0.0120    -3.0210    -0.0650 n7         1 NI7      -0.864400
     27 C28          1.0850    -2.1320     0.4920 c5         1 NI7       0.152300
     28 H1           1.1040    -0.6340    -1.1490 h1         1 NI7       0.068200
     29 H2          -1.0870    -0.6960     1.1030 h1         1 NI7       0.068200
     30 H5          -2.6090     1.3220    -2.1260 h1         1 NI7       0.070700
     31 H5A         -2.2590    -0.3670    -2.4350 h1         1 NI7       0.070700
     32 H7          -3.6000     1.6500     0.4990 ha         1 NI7       0.142500
     33 HO9         -6.5610     0.7890     2.3120 ho         1 NI7       0.465000
     34 H10         -6.9530    -1.0050     1.0720 ha         1 NI7       0.114500
     35 H11         -6.1790    -2.4000    -0.8350 ha         1 NI7       0.113500
     36 H12         -4.1210    -1.7830    -2.0800 ha         1 NI7       0.112000
     37 H18          2.6240     1.2460     2.1600 h1         1 NI7       0.070700
     38 H18A         2.2810    -0.4550     2.4040 h1         1 NI7       0.070700
     39 H20          3.6050     1.6820    -0.4510 ha         1 NI7       0.142500
     40 HO22         6.5610     0.9040    -2.3080 ho         1 NI7       0.465000
     41 H23          6.9620    -0.9380    -1.1440 ha         1 NI7       0.114500
     42 H24          6.1990    -2.4120     0.7080 ha         1 NI7       0.113500
     43 H25          4.1440    -1.8520     1.9840 ha         1 NI7       0.112000
     44 H26         -2.0610    -2.4790    -0.3910 h1         1 NI7       0.059200
     45 H26A        -0.9450    -2.0460    -1.7030 h1         1 NI7       0.059200
     46 HN27        -0.3760    -3.5850     0.7050 hn         1 NI7       0.419000
     47 H28          2.0900    -2.4850     0.2230 h1         1 NI7       0.059200
     48 H28A         1.0170    -2.1170     1.5890 h1         1 NI7       0.059200
@<TRIPOS>BOND
     1     1     2 1   
     2     1    16 1   
     3     1    27 1   
     4     1    28 1   
     5     2     3 1   
     6     2    25 1   
     7     2    29 1   
     8     3     4 1   
     9     3    12 1   
    10     4     5 1   
    11     4    30 1   
    12     4    31 1   
    13     5     6 ar  
    14     5    11 ar  
    15     6     7 ar  
    16     6    32 1   
    17     7     8 1   
    18     7     9 ar  
    19     8    33 1   
    20     9    10 ar  
    21     9    34 1   
    22    10    11 ar  
    23    10    35 1   
    24    11    36 1   
    25    12    13 2   
    26    12    14 1   
    27    14    15 2   
    28    14    16 1   
    29    16    17 1   
    30    17    18 1   
    31    17    37 1   
    32    17    38 1   
    33    18    19 ar  
    34    18    24 ar  
    35    19    20 ar  
    36    19    39 1   
    37    20    21 1   
    38    20    22 ar  
    39    21    40 1   
    40    22    23 ar  
    41    22    41 1   
    42    23    24 ar  
    43    23    42 1   
    44    24    43 1   
    45    25    26 1   
    46    25    44 1   
    47    25    45 1   
    48    26    27 1   
    49    26    46 1   
    50    27    47 1   
    51    27    48 1   
@<TRIPOS>SUBSTRUCTURE
     1 NI7         1 TEMP              0 ****  ****    0 ROOT
