@<TRIPOS>MOLECULE
NI7
   48    51     1     0     0
SMALL
bcc


@<TRIPOS>ATOM
      1 C1           0.6910    -1.1990     0.2570 c5         1 NI7       0.067700
      2 C2          -0.8000    -1.0940     0.0370 c5         1 NI7       0.067700
      3 N3          -1.0890    -0.0440    -0.9120 n          1 NI7      -0.458300
      4 C5          -2.2760    -0.1420    -1.7430 c3         1 NI7       0.144800
      5 C6          -3.5560    -0.1740    -0.9430 ca         1 NI7      -0.083300
      6 C7          -3.7870     0.7570     0.0620 ca         1 NI7      -0.143500
      7 C8          -4.9820     0.7410     0.7750 ca         1 NI7       0.140600
      8 O9          -5.1460     1.6690     1.7380 oh         1 NI7      -0.490100
      9 C10         -5.9560    -0.2110     0.4780 ca         1 NI7      -0.218500
     10 C11         -5.7210    -1.1360    -0.5270 ca         1 NI7      -0.089000
     11 C12         -4.5270    -1.1270    -1.2360 ca         1 NI7      -0.162000
     12 C13         -0.4100     1.1110    -0.7940 c          1 NI7       0.627000
     13 O14         -0.6200     2.1100    -1.4530 o          1 NI7      -0.573000
     14 C15          0.7200     1.1900     0.2710 c          1 NI7       0.627000
     15 O16          1.1240     2.2980     0.5630 o          1 NI7      -0.573000
     16 N17          1.1960     0.0440     0.7940 n          1 NI7      -0.458300
     17 C18          2.4250     0.0670     1.5820 c3         1 NI7       0.144800
     18 C19          3.6610     0.0480     0.7170 ca         1 NI7      -0.083300
     19 C20          4.2480     1.2420     0.3150 ca         1 NI7      -0.143500
     20 C21          5.3720     1.2340    -0.5080 ca         1 NI7       0.140600
     21 O22          5.8920     2.4260    -0.8640 oh         1 NI7      -0.490100
     22 C23          5.9140     0.0230    -0.9290 ca         1 NI7      -0.218500
     23 C24          5.3300    -1.1660    -0.5190 ca         1 NI7      -0.089000
     24 C25          4.2110    -1.1620     0.3000 ca         1 NI7      -0.162000
     25 C26         -1.1190    -2.5310    -0.3460 c5         1 NI7       0.152300
     26 N27         -0.2690    -3.3160     0.5550 n7         1 NI7      -0.809200
     27 C28          0.7610    -2.4420     1.1370 c5         1 NI7       0.152300
     28 H1           1.1760    -1.4200    -0.7040 h1         1 NI7       0.068200
     29 H2          -1.2860    -0.8760     0.9990 h1         1 NI7       0.068200
     30 H5          -2.2800     0.7060    -2.4270 h1         1 NI7       0.070700
     31 H5A         -2.2040    -1.0390    -2.3590 h1         1 NI7       0.070700
     32 H7          -3.0470     1.5120     0.2990 ha         1 NI7       0.160500
     33 HO9         -6.0150     1.5830     2.1450 ho         1 NI7       0.426000
     34 H10         -6.8890    -0.2320     1.0280 ha         1 NI7       0.132500
     35 H11         -6.4770    -1.8750    -0.7540 ha         1 NI7       0.131500
     36 H12         -4.3520    -1.8590    -2.0150 ha         1 NI7       0.130000
     37 H18          2.4110     0.9510     2.2170 h1         1 NI7       0.070700
     38 H18A         2.4140    -0.7980     2.2440 h1         1 NI7       0.070700
     39 H20          3.8360     2.1890     0.6410 ha         1 NI7       0.160500
     40 HO22         6.6600     2.3010    -1.4320 ho         1 NI7       0.426000
     41 H23          6.7890     0.0070    -1.5690 ha         1 NI7       0.132500
     42 H24          5.7600    -2.1070    -0.8390 ha         1 NI7       0.131500
     43 H25          3.7760    -2.1000     0.6220 ha         1 NI7       0.130000
     44 H26         -2.1700    -2.7870    -0.2160 h1         1 NI7       0.059200
     45 H26A        -0.8560    -2.7150    -1.3930 h1         1 NI7       0.059200
     46 HN27        -0.8220    -3.7330     1.2880 hn         1 NI7       0.363800
     47 H28          1.7430    -2.9170     1.1100 h1         1 NI7       0.059200
     48 H28A         0.5470    -2.1820     2.1790 h1         1 NI7       0.059200
@<TRIPOS>BOND
     1     1     2 1   
     2     1    16 1   
     3     1    27 1   
     4     1    28 1   
     5     2     3 1   
     6     2    25 1   
     7     2    29 1   
     8     3     4 1   
     9     3    12 1   
    10     4     5 1   
    11     4    30 1   
    12     4    31 1   
    13     5     6 ar  
    14     5    11 ar  
    15     6     7 ar  
    16     6    32 1   
    17     7     8 1   
    18     7     9 ar  
    19     8    33 1   
    20     9    10 ar  
    21     9    34 1   
    22    10    11 ar  
    23    10    35 1   
    24    11    36 1   
    25    12    13 2   
    26    12    14 1   
    27    14    15 2   
    28    14    16 1   
    29    16    17 1   
    30    17    18 1   
    31    17    37 1   
    32    17    38 1   
    33    18    19 ar  
    34    18    24 ar  
    35    19    20 ar  
    36    19    39 1   
    37    20    21 1   
    38    20    22 ar  
    39    21    40 1   
    40    22    23 ar  
    41    22    41 1   
    42    23    24 ar  
    43    23    42 1   
    44    24    43 1   
    45    25    26 1   
    46    25    44 1   
    47    25    45 1   
    48    26    27 1   
    49    26    46 1   
    50    27    47 1   
    51    27    48 1   
@<TRIPOS>SUBSTRUCTURE
     1 NI7         1 TEMP              0 ****  ****    0 ROOT
