@<TRIPOS>MOLECULE
NI8
   54    57     1     0     0
SMALL
abcg2


@<TRIPOS>ATOM
      1 C1           0.7280    -1.0050     0.1890 c5         1 NI8       0.065700
      2 C2          -0.7420    -0.9930    -0.1570 c5         1 NI8       0.065700
      3 N3          -1.0510     0.1720    -0.9550 n          1 NI8      -0.389800
      4 C5          -2.1800     0.1230    -1.8680 c3         1 NI8       0.143800
      5 C6          -3.4930    -0.0970    -1.1570 ca         1 NI8      -0.120800
      6 C7          -3.8600     0.6860    -0.0640 ca         1 NI8      -0.086500
      7 C8          -5.0740     0.5000     0.5830 ca         1 NI8      -0.086300
      8 C9          -5.4230     1.3270     1.7900 c3         1 NI8       0.207900
      9 C10         -5.9490    -0.4780     0.1120 ca         1 NI8      -0.077000
     10 C11         -5.5980    -1.2580    -0.9770 ca         1 NI8      -0.115000
     11 C12         -4.3720    -1.0740    -1.6070 ca         1 NI8      -0.101500
     12 C13         -0.4990     1.3460    -0.5960 c          1 NI8       0.481500
     13 O14         -0.7610     2.4170    -1.1030 o          1 NI8      -0.500500
     14 C15          0.5400     1.3490     0.5620 c          1 NI8       0.481500
     15 O16          0.8270     2.4280     1.0400 o          1 NI8      -0.500500
     16 N17          1.0720     0.1740     0.9510 n          1 NI8      -0.389800
     17 C18          2.2190     0.1360     1.8450 c3         1 NI8       0.143800
     18 C19          3.5150    -0.0950     1.1080 ca         1 NI8      -0.120800
     19 C20          3.9190     0.7680     0.0910 ca         1 NI8      -0.086500
     20 C21          5.1110     0.5710    -0.5940 ca         1 NI8      -0.086300
     21 C22          5.4900     1.4880    -1.7240 c3         1 NI8       0.207900
     22 C23          5.9240    -0.5050    -0.2380 ca         1 NI8      -0.077000
     23 C24          5.5370    -1.3630     0.7780 ca         1 NI8      -0.115000
     24 C25          4.3340    -1.1640     1.4460 ca         1 NI8      -0.101500
     25 C26         -0.8720    -2.3710    -0.7880 c5         1 NI8       0.150300
     26 N27         -0.0520    -3.2180     0.0860 n7         1 NI8      -0.857400
     27 C28          0.8550    -2.3630     0.8710 c5         1 NI8       0.150300
     28 O29          6.8740     1.7470    -1.6820 oh         1 NI8      -0.655000
     29 O30         -6.7360     1.8210     1.6570 oh         1 NI8      -0.655000
     30 H1           1.3110    -1.0270    -0.7420 h1         1 NI8       0.067200
     31 H2          -1.3310    -0.9840     0.7700 h1         1 NI8       0.067200
     32 H5          -2.2000     1.0540    -2.4330 h1         1 NI8       0.071450
     33 H5A         -2.0150    -0.6770    -2.5920 h1         1 NI8       0.071450
     34 H7          -3.1950     1.4640     0.2960 ha         1 NI8       0.121500
     35 H9          -5.3260     0.7010     2.6860 h1         1 NI8       0.028450
     36 H9A         -4.6890     2.1360     1.8950 h1         1 NI8       0.028450
     37 H10         -6.9030    -0.6370     0.5990 ha         1 NI8       0.124000
     38 H11         -6.2770    -2.0190    -1.3380 ha         1 NI8       0.115000
     39 H12         -4.1020    -1.6920    -2.4540 ha         1 NI8       0.109000
     40 H18          2.2490     1.0750     2.3960 h1         1 NI8       0.071450
     41 H18A         2.0650    -0.6540     2.5820 h1         1 NI8       0.071450
     42 H20          3.3030     1.6210    -0.1720 ha         1 NI8       0.121500
     43 H22          5.2060     1.0130    -2.6710 h1         1 NI8       0.028450
     44 H22A         4.8990     2.4100    -1.6520 h1         1 NI8       0.028450
     45 H23          6.8600    -0.6760    -0.7530 ha         1 NI8       0.124000
     46 H24          6.1720    -2.1960     1.0520 ha         1 NI8       0.115000
     47 H25          4.0360    -1.8440     2.2360 ha         1 NI8       0.109000
     48 H26         -1.8980    -2.7340    -0.8290 h1         1 NI8       0.061200
     49 H26A        -0.4780    -2.3630    -1.8100 h1         1 NI8       0.061200
     50 HN27        -0.6470    -3.7440     0.7080 hn         1 NI8       0.416000
     51 H28          1.8800    -2.7360     0.8460 h1         1 NI8       0.061200
     52 H28A         0.5490    -2.2960     1.9190 h1         1 NI8       0.061200
     53 HO29         7.1340     2.1210    -2.5290 ho         1 NI8       0.444500
     54 HO30        -7.0230     2.1410     2.5170 ho         1 NI8       0.444500
@<TRIPOS>BOND
     1     1     2 1   
     2     1    16 1   
     3     1    27 1   
     4     1    30 1   
     5     2     3 1   
     6     2    25 1   
     7     2    31 1   
     8     3     4 1   
     9     3    12 1   
    10     4     5 1   
    11     4    32 1   
    12     4    33 1   
    13     5     6 ar  
    14     5    11 ar  
    15     6     7 ar  
    16     6    34 1   
    17     7     8 1   
    18     7     9 ar  
    19     8    29 1   
    20     8    35 1   
    21     8    36 1   
    22     9    10 ar  
    23     9    37 1   
    24    10    11 ar  
    25    10    38 1   
    26    11    39 1   
    27    12    13 2   
    28    12    14 1   
    29    14    15 2   
    30    14    16 1   
    31    16    17 1   
    32    17    18 1   
    33    17    40 1   
    34    17    41 1   
    35    18    19 ar  
    36    18    24 ar  
    37    19    20 ar  
    38    19    42 1   
    39    20    21 1   
    40    20    22 ar  
    41    21    28 1   
    42    21    43 1   
    43    21    44 1   
    44    22    23 ar  
    45    22    45 1   
    46    23    24 ar  
    47    23    46 1   
    48    24    47 1   
    49    25    26 1   
    50    25    48 1   
    51    25    49 1   
    52    26    27 1   
    53    26    50 1   
    54    27    51 1   
    55    27    52 1   
    56    28    53 1   
    57    29    54 1   
@<TRIPOS>SUBSTRUCTURE
     1 NI8         1 TEMP              0 ****  ****    0 ROOT
