@<TRIPOS>MOLECULE
NI8
   54    57     1     0     0
SMALL
No Charge or Current Charge


@<TRIPOS>ATOM
      1 C1           0.7750    -0.7650    -0.0590 c5         1 NI8       0.065700
      2 C2          -0.7620    -0.7680     0.0200 c5         1 NI8       0.065700
      3 N3          -1.1960     0.3840    -0.8250 n          1 NI8      -0.389800
      4 C5          -2.3500     0.3260    -1.7610 c3         1 NI8       0.143800
      5 C6          -3.6520    -0.0850    -1.0830 ca         1 NI8      -0.120800
      6 C7          -4.1520     0.6630     0.0010 ca         1 NI8      -0.086500
      7 C8          -5.3500     0.2890     0.6410 ca         1 NI8      -0.086300
      8 C9          -5.8780     1.0970     1.8190 c3         1 NI8       0.207900
      9 C10         -6.0530    -0.8430     0.1830 ca         1 NI8      -0.077000
     10 C11         -5.5620    -1.5900    -0.9000 ca         1 NI8      -0.115000
     11 C12         -4.3660    -1.2130    -1.5330 ca         1 NI8      -0.101500
     12 C13         -0.6100     1.6390    -0.4940 c          1 NI8       0.481500
     13 O14         -1.0030     2.6900    -0.9950 o          1 NI8      -0.500500
     14 C15          0.6170     1.6190     0.5510 c          1 NI8       0.481500
     15 O16          1.0060     2.6520     1.0930 o          1 NI8      -0.500500
     16 N17          1.2080     0.3540     0.8310 n          1 NI8      -0.389800
     17 C18          2.3650     0.2640     1.7600 c3         1 NI8       0.143800
     18 C19          3.6630    -0.1310     1.0660 ca         1 NI8      -0.120800
     19 C20          4.1610     0.6460     0.0020 ca         1 NI8      -0.086500
     20 C21          5.3550     0.2860    -0.6530 ca         1 NI8      -0.086300
     21 C22          5.8820     1.1260    -1.8090 c3         1 NI8       0.207900
     22 C23          6.0560    -0.8610    -0.2320 ca         1 NI8      -0.077000
     23 C24          5.5660    -1.6380     0.8320 ca         1 NI8      -0.115000
     24 C25          4.3740    -1.2750     1.4800 ca         1 NI8      -0.101500
     25 C26         -1.0250    -2.1430    -0.6550 c5         1 NI8       0.150300
     26 N27          0.0010    -3.0540    -0.0500 n7         1 NI8      -0.857400
     27 C28          1.0490    -2.1670     0.5570 c5         1 NI8       0.150300
     28 O29          6.7900     2.1230    -1.3270 oh         1 NI8      -0.655000
     29 O30         -6.7810     2.1100     1.3630 oh         1 NI8      -0.655000
     30 H1           1.1590    -0.6740    -1.0850 h1         1 NI8       0.067200
     31 H2          -1.1480    -0.7200     1.0480 h1         1 NI8       0.067200
     32 H5          -2.5040     1.2970    -2.2480 h1         1 NI8       0.071450
     33 H5A         -2.1120    -0.3820    -2.5650 h1         1 NI8       0.071450
     34 H7          -3.6070     1.5390     0.3490 ha         1 NI8       0.121500
     35 H9          -6.3850     0.4220     2.5220 h1         1 NI8       0.028450
     36 H9A         -5.0330     1.5520     2.3540 h1         1 NI8       0.028450
     37 H10         -6.9800    -1.1410     0.6670 ha         1 NI8       0.124000
     38 H11         -6.1090    -2.4620    -1.2500 ha         1 NI8       0.115000
     39 H12         -3.9950    -1.7990    -2.3710 ha         1 NI8       0.109000
     40 H18          2.5260     1.2200     2.2750 h1         1 NI8       0.071450
     41 H18A         2.1270    -0.4660     2.5450 h1         1 NI8       0.071450
     42 H20          3.6190     1.5330    -0.3180 ha         1 NI8       0.121500
     43 H22          6.3850     0.4710    -2.5330 h1         1 NI8       0.028450
     44 H22A         5.0370     1.6000    -2.3270 h1         1 NI8       0.028450
     45 H23          6.9800    -1.1490    -0.7280 ha         1 NI8       0.124000
     46 H24          6.1110    -2.5220     1.1540 ha         1 NI8       0.115000
     47 H25          4.0040    -1.8840     2.3020 ha         1 NI8       0.109000
     48 H26         -2.0490    -2.5050    -0.4890 h1         1 NI8       0.061200
     49 H26A        -0.8630    -2.0810    -1.7410 h1         1 NI8       0.061200
     50 HN27        -0.4290    -3.6120     0.7010 hn         1 NI8       0.416000
     51 H28          2.0650    -2.5250     0.3400 h1         1 NI8       0.061200
     52 H28A         0.9260    -2.1470     1.6500 h1         1 NI8       0.061200
     53 HO29         7.0940     2.6300    -2.1120 ho         1 NI8       0.444500
     54 HO30        -7.0860     2.5960     2.1610 ho         1 NI8       0.444500
@<TRIPOS>BOND
     1     1     2 1   
     2     1    16 1   
     3     1    27 1   
     4     1    30 1   
     5     2     3 1   
     6     2    25 1   
     7     2    31 1   
     8     3     4 1   
     9     3    12 1   
    10     4     5 1   
    11     4    32 1   
    12     4    33 1   
    13     5     6 ar  
    14     5    11 ar  
    15     6     7 ar  
    16     6    34 1   
    17     7     8 1   
    18     7     9 ar  
    19     8    29 1   
    20     8    35 1   
    21     8    36 1   
    22     9    10 ar  
    23     9    37 1   
    24    10    11 ar  
    25    10    38 1   
    26    11    39 1   
    27    12    13 2   
    28    12    14 1   
    29    14    15 2   
    30    14    16 1   
    31    16    17 1   
    32    17    18 1   
    33    17    40 1   
    34    17    41 1   
    35    18    19 ar  
    36    18    24 ar  
    37    19    20 ar  
    38    19    42 1   
    39    20    21 1   
    40    20    22 ar  
    41    21    28 1   
    42    21    43 1   
    43    21    44 1   
    44    22    23 ar  
    45    22    45 1   
    46    23    24 ar  
    47    23    46 1   
    48    24    47 1   
    49    25    26 1   
    50    25    48 1   
    51    25    49 1   
    52    26    27 1   
    53    26    50 1   
    54    27    51 1   
    55    27    52 1   
    56    28    53 1   
    57    29    54 1   
@<TRIPOS>SUBSTRUCTURE
     1 NI8         1 TEMP              0 ****  ****    0 ROOT
