@<TRIPOS>MOLECULE
NIB
   59    62     1     0     0
SMALL
No Charge or Current Charge


@<TRIPOS>ATOM
      1 C4          19.8880   -23.9400    -1.7200 c6         1 NIB      -0.081900
      2 C14         21.9800   -18.9040     3.6650 ca         1 NIB      -0.061500
      3 C5          21.1640   -23.3560    -2.3880 cy         1 NIB      -0.065000
      4 C6          21.4460   -24.0950    -3.7360 c6         1 NIB      -0.081900
      5 C11         25.0950   -19.5410    -0.1700 c6         1 NIB       0.168200
      6 C7          21.4980   -25.6290    -3.5330 c6         1 NIB       0.098500
      7 C8          22.3970   -23.2410    -1.4250 cy         1 NIB      -0.099400
      8 C9          22.7260   -21.8900    -2.1500 cy         1 NIB       0.093700
      9 C10         24.6910   -20.7580    -1.1090 c          1 NIB       0.596100
     10 C12         23.2080   -19.4150     1.6190 ca         1 NIB       0.311000
     11 C13         22.6760   -18.4780     2.5190 ca         1 NIB      -0.175500
     12 N1          20.2480   -26.1180    -2.8850 n          1 NIB      -0.401800
     13 N2          23.3480   -20.8350    -1.4080 ns         1 NIB      -0.479900
     14 C3          19.9890   -25.4770    -1.5680 c6         1 NIB       0.098500
     15 N3          23.8750   -18.9360     0.4850 nu         1 NIB      -0.980200
     16 O1          18.2470   -27.2490    -2.9480 o          1 NIB      -0.592100
     17 C1          19.2990   -26.9680    -3.5110 c          1 NIB       0.604100
     18 C2          19.6110   -27.5610    -4.9000 c3         1 NIB       0.035600
     19 O2          25.4860   -21.6130    -1.4870 o          1 NIB      -0.603100
     20 C15         21.8080   -20.2760     3.9100 ca         1 NIB       0.075000
     21 Cl2         20.9370   -20.8130     5.3410 cl         1 NIB      -0.205000
     22 C16         22.3300   -21.2200     3.0110 ca         1 NIB      -0.061500
     23 C17         23.0260   -20.7890     1.8660 ca         1 NIB      -0.175500
     24 C18         25.6940   -18.4040    -1.0480 c6         1 NIB      -0.124900
     25 C19         26.3420   -17.2810    -0.1990 c6         1 NIB       0.152600
     26 O3          27.2920   -17.8430     0.7290 os         1 NIB      -0.441000
     27 C20         26.7020   -18.7520     1.6810 c6         1 NIB       0.152600
     28 C21         26.1080   -19.9720     0.9400 c6         1 NIB      -0.124900
     29 C22         21.1940   -21.7920    -2.4660 cy         1 NIB      -0.099400
     30 H1          19.7200   -23.4830    -0.7350 hc         1 NIB       0.052950
     31 H2          19.0070   -23.6950    -2.3280 hc         1 NIB       0.052950
     32 H3          21.5730   -18.1730     4.3610 ha         1 NIB       0.128500
     33 H4          22.3860   -23.7600    -4.1940 hc         1 NIB       0.052950
     34 H5          20.6530   -23.8570    -4.4580 hc         1 NIB       0.052950
     35 H6          21.6830   -26.1160    -4.4980 h1         1 NIB       0.059700
     36 H7          22.3510   -25.8820    -2.8870 h1         1 NIB       0.059700
     37 H8          22.1390   -23.1260    -0.3660 hc         1 NIB       0.058950
     38 H9          23.1590   -24.0220    -1.5110 hc         1 NIB       0.058950
     39 H10         23.3200   -22.0440    -3.0600 h1         1 NIB       0.083700
     40 H11         22.8040   -17.4150     2.3360 ha         1 NIB       0.120000
     41 H12         22.7940   -20.1060    -0.9680 hn         1 NIB       0.329500
     42 H13         19.0650   -25.8600    -1.1130 h1         1 NIB       0.059700
     43 H14         20.8120   -25.7240    -0.8820 h1         1 NIB       0.059700
     44 H15         23.7400   -17.9360     0.3360 hn         1 NIB       0.477000
     45 H16         18.6920   -28.0050    -5.3010 h1         1 NIB       0.086200
     46 H17         19.9380   -26.7630    -5.5760 h1         1 NIB       0.086200
     47 Cl1         20.8880   -28.8690    -4.8650 cl         1 NIB      -0.257000
     48 H19         22.1940   -22.2820     3.1990 ha         1 NIB       0.128500
     49 H20         23.4210   -21.5320     1.1840 ha         1 NIB       0.120000
     50 H21         24.9300   -17.9830    -1.7160 hc         1 NIB       0.073700
     51 H22         26.4670   -18.8270    -1.7040 hc         1 NIB       0.073700
     52 H23         26.8630   -16.5700    -0.8560 h1         1 NIB       0.046950
     53 H24         25.5760   -16.7240     0.3600 h1         1 NIB       0.046950
     54 H25         27.4780   -19.0840     2.3860 h1         1 NIB       0.046950
     55 H26         25.9230   -18.2290     2.2550 h1         1 NIB       0.046950
     56 H27         25.6620   -20.6700     1.6570 hc         1 NIB       0.073700
     57 H28         26.9390   -20.5190     0.4760 hc         1 NIB       0.073700
     58 H29         20.9350   -21.3520    -3.4340 hc         1 NIB       0.058950
     59 H30         20.6100   -21.2870    -1.6880 hc         1 NIB       0.058950
@<TRIPOS>BOND
     1     1     3 1   
     2     1    14 1   
     3     1    30 1   
     4     1    31 1   
     5     2    11 ar  
     6     2    20 ar  
     7     2    32 1   
     8     3     4 1   
     9     3     7 1   
    10     3    29 1   
    11     4     6 1   
    12     4    33 1   
    13     4    34 1   
    14     5     9 1   
    15     5    15 1   
    16     5    24 1   
    17     5    28 1   
    18     6    12 1   
    19     6    35 1   
    20     6    36 1   
    21     7     8 1   
    22     7    37 1   
    23     7    38 1   
    24     8    13 1   
    25     8    29 1   
    26     8    39 1   
    27     9    13 1   
    28     9    19 2   
    29    10    11 ar  
    30    10    15 1   
    31    10    23 ar  
    32    11    40 1   
    33    12    14 1   
    34    12    17 1   
    35    13    41 1   
    36    14    42 1   
    37    14    43 1   
    38    15    44 1   
    39    16    17 2   
    40    17    18 1   
    41    18    45 1   
    42    18    46 1   
    43    18    47 1   
    44    20    21 1   
    45    20    22 ar  
    46    22    23 ar  
    47    22    48 1   
    48    23    49 1   
    49    24    25 1   
    50    24    50 1   
    51    24    51 1   
    52    25    26 1   
    53    25    52 1   
    54    25    53 1   
    55    26    27 1   
    56    27    28 1   
    57    27    54 1   
    58    27    55 1   
    59    28    56 1   
    60    28    57 1   
    61    29    58 1   
    62    29    59 1   
@<TRIPOS>SUBSTRUCTURE
     1 NIB         1 TEMP              0 ****  ****    0 ROOT
