@<TRIPOS>MOLECULE
NIB
   59    62     1     0     0
SMALL
abcg2


@<TRIPOS>ATOM
      1 C4          19.8300   -23.5010    -2.1550 c6         1 NIB      -0.081900
      2 C14         21.8890   -19.4570     3.7520 ca         1 NIB      -0.061500
      3 C5          21.2670   -23.2410    -2.5730 cy         1 NIB      -0.065000
      4 C6          21.6440   -24.2000    -3.6990 c6         1 NIB      -0.081900
      5 C11         24.9960   -19.5350    -0.0570 c6         1 NIB       0.168200
      6 C7          21.3840   -25.6510    -3.3160 c6         1 NIB       0.098500
      7 C8          22.3230   -23.2140    -1.4390 cy         1 NIB      -0.099400
      8 C9          22.9590   -21.9900    -2.1270 cy         1 NIB       0.093700
      9 C10         24.6910   -20.7960    -0.8890 c          1 NIB       0.596100
     10 C12         23.2780   -19.6720     1.7700 ca         1 NIB       0.311000
     11 C13         22.4800   -18.9050     2.6310 ca         1 NIB      -0.175500
     12 N1          20.0030   -25.8300    -2.8970 n          1 NIB      -0.401800
     13 N2          23.4290   -20.8970    -1.3240 ns         1 NIB      -0.479900
     14 C3          19.6190   -24.9640    -1.7930 c6         1 NIB       0.098500
     15 N3          23.8090   -19.0780     0.6440 nu         1 NIB      -0.980200
     16 O1          17.9440   -26.7470    -3.0920 o          1 NIB      -0.592100
     17 C1          19.1100   -26.6680    -3.4510 c          1 NIB       0.604100
     18 C2          19.5880   -27.5730    -4.5770 c3         1 NIB       0.035600
     19 O2          25.5680   -21.5990    -1.1760 o          1 NIB      -0.603100
     20 C15         22.0900   -20.7980     4.0440 ca         1 NIB       0.075000
     21 CL2         21.3670   -21.4920     5.4630 cl         1 NIB      -0.205000
     22 C16         22.8680   -21.5800     3.2090 ca         1 NIB      -0.061500
     23 C17         23.4530   -21.0270     2.0800 ca         1 NIB      -0.175500
     24 C18         25.3990   -18.4390    -1.0650 c6         1 NIB      -0.124900
     25 C19         25.9760   -17.2070    -0.3770 c6         1 NIB       0.152600
     26 O3          27.0520   -17.5240     0.4710 os         1 NIB      -0.441000
     27 C20         26.6780   -18.4490     1.4680 c6         1 NIB       0.152600
     28 C21         26.2010   -19.7610     0.8710 c6         1 NIB      -0.124900
     29 C22         21.6470   -21.7790    -2.8920 cy         1 NIB      -0.099400
     30 H1          19.5680   -22.8800    -1.2950 hc         1 NIB       0.052950
     31 H2          19.1510   -23.2260    -2.9690 hc         1 NIB       0.052950
     32 H3          21.2820   -18.8370     4.3970 ha         1 NIB       0.128500
     33 H4          22.6980   -24.0960    -3.9700 hc         1 NIB       0.052950
     34 H5          21.0620   -23.9540    -4.5930 hc         1 NIB       0.052950
     35 H6          21.6310   -26.3010    -4.1490 h1         1 NIB       0.059700
     36 H7          22.0370   -25.9450    -2.4880 h1         1 NIB       0.059700
     37 H8          21.8760   -22.9370    -0.4810 hc         1 NIB       0.058950
     38 H9          22.9530   -24.0930    -1.2920 hc         1 NIB       0.058950
     39 H10         23.7610   -22.2970    -2.7990 h1         1 NIB       0.083700
     40 H11         22.3240   -17.8530     2.4200 ha         1 NIB       0.120000
     41 H12         22.7580   -20.2300    -0.9730 hn         1 NIB       0.329500
     42 H13         18.5820   -25.1550    -1.5300 h1         1 NIB       0.059700
     43 H14         20.2300   -25.2240    -0.9210 h1         1 NIB       0.059700
     44 H15         23.6250   -18.0900     0.5780 hn         1 NIB       0.477000
     45 H16         18.7230   -28.0590    -5.0180 h1         1 NIB       0.086200
     46 H17         20.1370   -27.0500    -5.3570 h1         1 NIB       0.086200
     47 CL1         20.6490   -28.8660    -3.9210 cl         1 NIB      -0.257000
     48 H19         23.0240   -22.6280     3.4260 ha         1 NIB       0.128500
     49 H20         24.0440   -21.6780     1.4520 ha         1 NIB       0.120000
     50 H21         24.5380   -18.1490    -1.6720 hc         1 NIB       0.073700
     51 H22         26.1470   -18.8560    -1.7420 hc         1 NIB       0.073700
     52 H23         26.3510   -16.5150    -1.1330 h1         1 NIB       0.046950
     53 H24         25.1940   -16.6710     0.1800 h1         1 NIB       0.046950
     54 H25         27.5590   -18.6240     2.0870 h1         1 NIB       0.046950
     55 H26         25.9040   -18.0200     2.1210 h1         1 NIB       0.046950
     56 H27         25.9660   -20.4570     1.6780 hc         1 NIB       0.073700
     57 H28         27.0120   -20.2090     0.2960 hc         1 NIB       0.073700
     58 H29         21.7120   -21.4830    -3.9410 hc         1 NIB       0.058950
     59 H30         20.9860   -21.0790    -2.3730 hc         1 NIB       0.058950
@<TRIPOS>BOND
     1     1     3 1   
     2     1    14 1   
     3     1    30 1   
     4     1    31 1   
     5     2    11 ar  
     6     2    20 ar  
     7     2    32 1   
     8     3     4 1   
     9     3     7 1   
    10     3    29 1   
    11     4     6 1   
    12     4    33 1   
    13     4    34 1   
    14     5     9 1   
    15     5    15 1   
    16     5    24 1   
    17     5    28 1   
    18     6    12 1   
    19     6    35 1   
    20     6    36 1   
    21     7     8 1   
    22     7    37 1   
    23     7    38 1   
    24     8    13 1   
    25     8    29 1   
    26     8    39 1   
    27     9    13 1   
    28     9    19 2   
    29    10    11 ar  
    30    10    15 1   
    31    10    23 ar  
    32    11    40 1   
    33    12    14 1   
    34    12    17 1   
    35    13    41 1   
    36    14    42 1   
    37    14    43 1   
    38    15    44 1   
    39    16    17 2   
    40    17    18 1   
    41    18    45 1   
    42    18    46 1   
    43    18    47 1   
    44    20    21 1   
    45    20    22 ar  
    46    22    23 ar  
    47    22    48 1   
    48    23    49 1   
    49    24    25 1   
    50    24    50 1   
    51    24    51 1   
    52    25    26 1   
    53    25    52 1   
    54    25    53 1   
    55    26    27 1   
    56    27    28 1   
    57    27    54 1   
    58    27    55 1   
    59    28    56 1   
    60    28    57 1   
    61    29    58 1   
    62    29    59 1   
@<TRIPOS>SUBSTRUCTURE
     1 NIB         1 TEMP              0 ****  ****    0 ROOT
