@<TRIPOS>MOLECULE
NIC
   18    17     1     0     0
SMALL
bcc


@<TRIPOS>ATOM
      1 C1          -2.3850    -0.1170    -0.5100 c          1 NIC       0.909600
      2 O1          -3.1950    -0.0830     0.4430 o          1 NIC      -0.827300
      3 O2          -2.4800     0.4280    -1.6170 o          1 NIC      -0.827300
      4 C2          -1.1260    -0.9820    -0.2430 c3         1 NIC      -0.020900
      5 C3           0.1740    -0.1690    -0.3590 c3         1 NIC      -0.024000
      6 O7          -1.2360    -1.6120     0.9980 oh         1 NIC      -0.631800
      7 C4           1.4240    -1.0110    -0.2650 c3         1 NIC      -0.215400
      8 C5           2.7330    -0.2040    -0.3500 c          1 NIC       0.932600
      9 O3           2.6320     1.0110    -0.6120 o          1 NIC      -0.856300
     10 O4           3.7840    -0.8460    -0.1640 o          1 NIC      -0.856300
     11 N6           0.1570     0.8770     0.7090 no         1 NIC       0.275300
     12 O5           0.6750     0.6290     1.7700 o          1 NIC      -0.253000
     13 O6          -0.4370     1.9070     0.4790 o          1 NIC      -0.253000
     14 H2          -1.0590    -1.7260    -1.0500 h1         1 NIC       0.033700
     15 H3           0.1490     0.3780    -1.3000 h1         1 NIC       0.106700
     16 HO7         -2.0610    -1.2290     1.3530 ho         1 NIC       0.430000
     17 H41          1.3970    -1.7090    -1.1080 hc         1 NIC       0.039200
     18 H42          1.4190    -1.6320     0.6330 hc         1 NIC       0.039200
@<TRIPOS>BOND
     1     1     2 1   
     2     1     3 1   
     3     1     4 1   
     4     4     5 1   
     5     4     6 1   
     6     4    14 1   
     7     5     7 1   
     8     5    11 1   
     9     5    15 1   
    10     6    16 1   
    11     7     8 1   
    12     7    17 1   
    13     7    18 1   
    14     8     9 1   
    15     8    10 1   
    16    11    12 1   
    17    11    13 1   
@<TRIPOS>SUBSTRUCTURE
     1 NIC         1 TEMP              0 ****  ****    0 ROOT
