@<TRIPOS>MOLECULE
NIC
   18    17     1     0     0
SMALL
No Charge or Current Charge


@<TRIPOS>ATOM
      1 C1          -2.3970    -0.0200    -0.3330 c          1 NIC       0.699000
      2 O1          -3.1460    -0.0720     0.6340 o          1 NIC      -0.722000
      3 O2          -2.5970     0.6910    -1.3080 o          1 NIC      -0.722000
      4 C2          -1.1560    -0.9810    -0.3440 c3         1 NIC       0.002300
      5 C3           0.1800    -0.1740    -0.2840 c3         1 NIC       0.005300
      6 O7          -1.2270    -1.9790     0.7120 oh         1 NIC      -0.694000
      7 C4           1.4680    -1.0560    -0.3210 c3         1 NIC      -0.215400
      8 C5           2.7020    -0.1670    -0.5140 c          1 NIC       0.722000
      9 O3           3.0140     0.1370    -1.6540 o          1 NIC      -0.751000
     10 O4           3.2820     0.2430     0.4780 o          1 NIC      -0.751000
     11 N6           0.1890     0.8490     0.8810 no         1 NIC       0.626000
     12 O5           0.2140     0.4240     2.0450 o          1 NIC      -0.443000
     13 O6           0.1420     2.0510     0.5840 o          1 NIC      -0.443000
     14 H2          -1.1790    -1.4960    -1.3140 h1         1 NIC       0.033700
     15 H3           0.1990     0.4630    -1.1770 h1         1 NIC       0.106700
     16 HO7         -1.9890    -1.6970     1.2760 ho         1 NIC       0.469000
     17 H41          1.3460    -1.7160    -1.1880 hc         1 NIC       0.039200
     18 H42          1.5220    -1.5900     0.6350 hc         1 NIC       0.039200
@<TRIPOS>BOND
     1     1     2 1   
     2     1     3 1   
     3     1     4 1   
     4     4     5 1   
     5     4     6 1   
     6     4    14 1   
     7     5     7 1   
     8     5    11 1   
     9     5    15 1   
    10     6    16 1   
    11     7     8 1   
    12     7    17 1   
    13     7    18 1   
    14     8     9 1   
    15     8    10 1   
    16    11    12 1   
    17    11    13 1   
@<TRIPOS>SUBSTRUCTURE
     1 NIC         1 TEMP              0 ****  ****    0 ROOT
