@<TRIPOS>MOLECULE
NID
   18    19     1     0     0
SMALL
No Charge or Current Charge


@<TRIPOS>ATOM
      1 C2          99.0600    44.5870    21.9700 ca         1 NID      -0.151200
      2 C7          99.9590    44.2380    20.9350 ca         1 NID       0.014200
      3 C1         100.4690    42.9240    20.5300 cc         1 NID      -0.101200
      4 C9         101.3310    43.1510    19.4690 cd         1 NID      -0.277200
      5 C8         101.4210    44.5790    19.1480 c          1 NID       0.571900
      6 O1         102.0860    45.1180    18.2760 o          1 NID      -0.471100
      7 C6         100.5220    45.2240    20.1280 ca         1 NID      -0.201600
      8 C5         100.2380    46.5850    20.2940 ca         1 NID      -0.003000
      9 C4          99.3500    46.9500    21.3230 ca         1 NID      -0.124000
     10 C3          98.7680    45.9650    22.1540 ca         1 NID      -0.038000
     11 N           98.4230    43.5680    22.8620 no         1 NID       0.678200
     12 ON1         98.0100    43.9450    23.9680 o          1 NID      -0.393500
     13 ON2         98.2470    42.4260    22.4230 o          1 NID      -0.393500
     14 H1         100.2420    41.9520    20.9620 ha         1 NID       0.232000
     15 H9         101.9000    42.4210    18.9050 ha         1 NID       0.225000
     16 H5         100.6930    47.3380    19.6520 ha         1 NID       0.142000
     17 H4          99.1100    48.0000    21.4790 ha         1 NID       0.136000
     18 H3          98.0820    46.2830    22.9370 ha         1 NID       0.156000
@<TRIPOS>BOND
     1     1     2 ar  
     2     1    10 ar  
     3     1    11 1   
     4     2     3 1   
     5     2     7 ar  
     6     3     4 2   
     7     3    14 1   
     8     4     5 1   
     9     4    15 1   
    10     5     6 2   
    11     5     7 1   
    12     7     8 ar  
    13     8     9 ar  
    14     8    16 1   
    15     9    10 ar  
    16     9    17 1   
    17    10    18 1   
    18    11    12 1   
    19    11    13 1   
@<TRIPOS>SUBSTRUCTURE
     1 NID         1 TEMP              0 ****  ****    0 ROOT
