@<TRIPOS>MOLECULE
NID
   18    19     1     0     0
SMALL
abcg2


@<TRIPOS>ATOM
      1 C2          99.0800    44.6110    21.9560 ca         1 NID      -0.151200
      2 C7          99.9520    44.2270    20.9500 ca         1 NID       0.014200
      3 C1         100.4760    42.9220    20.4720 cc         1 NID      -0.101200
      4 C9         101.3080    43.1120    19.4370 cd         1 NID      -0.277200
      5 C8         101.4040    44.5700    19.1460 c          1 NID       0.571900
      6 O1         102.0520    45.1120    18.2760 o          1 NID      -0.471100
      7 C6         100.5150    45.2390    20.1550 ca         1 NID      -0.201600
      8 C5         100.2400    46.5710    20.3370 ca         1 NID      -0.003000
      9 C4          99.3560    46.9370    21.3640 ca         1 NID      -0.124000
     10 C3          98.7830    45.9680    22.1630 ca         1 NID      -0.038000
     11 N           98.4330    43.6300    22.8290 no         1 NID       0.678200
     12 ON1         97.6940    44.0420    23.7130 o          1 NID      -0.393500
     13 ON2         98.6570    42.4410    22.6350 o          1 NID      -0.393500
     14 H1         100.2080    41.9770    20.9120 ha         1 NID       0.232000
     15 H9         101.8420    42.3580    18.8810 ha         1 NID       0.225000
     16 H5         100.6940    47.3210    19.7020 ha         1 NID       0.142000
     17 H4          99.1190    47.9780    21.5330 ha         1 NID       0.136000
     18 H3          98.1000    46.2390    22.9530 ha         1 NID       0.156000
@<TRIPOS>BOND
     1     1     2 ar  
     2     1    10 ar  
     3     1    11 1   
     4     2     3 1   
     5     2     7 ar  
     6     3     4 2   
     7     3    14 1   
     8     4     5 1   
     9     4    15 1   
    10     5     6 2   
    11     5     7 1   
    12     7     8 ar  
    13     8     9 ar  
    14     8    16 1   
    15     9    10 ar  
    16     9    17 1   
    17    10    18 1   
    18    11    12 1   
    19    11    13 1   
@<TRIPOS>SUBSTRUCTURE
     1 NID         1 TEMP              0 ****  ****    0 ROOT
