@<TRIPOS>MOLECULE
NIE
   10     9     1     0     0
SMALL
No Charge or Current Charge


@<TRIPOS>ATOM
      1 N3           0.5830     0.0460     0.0960 no         1 NIE       0.580000
      2 C1          -1.9130    -0.0120    -0.4300 c3         1 NIE      -0.100100
      3 C2          -0.7780    -0.5360     0.4800 c3         1 NIE      -0.044400
      4 O4           0.9240     1.1090     0.6280 o          1 NIE      -0.400000
      5 O5           1.2530    -0.5660    -0.7440 o          1 NIE      -0.400000
      6 H1          -1.7260    -0.2810    -1.4770 hc         1 NIE       0.061033
      7 H1A         -2.8740    -0.4470    -0.1300 hc         1 NIE       0.061033
      8 H1B         -1.9930     1.0800    -0.3620 hc         1 NIE       0.061033
      9 H2          -0.6810    -1.6250     0.4040 h1         1 NIE       0.091200
     10 H2A         -0.9490    -0.2560     1.5260 h1         1 NIE       0.091200
@<TRIPOS>BOND
     1     1     3 1   
     2     1     4 1   
     3     1     5 1   
     4     2     3 1   
     5     2     6 1   
     6     2     7 1   
     7     2     8 1   
     8     3     9 1   
     9     3    10 1   
@<TRIPOS>SUBSTRUCTURE
     1 NIE         1 TEMP              0 ****  ****    0 ROOT
