@<TRIPOS>MOLECULE
NIE
   10     9     1     0     0
SMALL
abcg2


@<TRIPOS>ATOM
      1 N3           0.5720     0.0020     0.0550 no         1 NIE       0.580000
      2 C1          -1.9210     0.1400    -0.2690 c3         1 NIE      -0.100100
      3 C2          -0.7570    -0.6470     0.2740 c3         1 NIE      -0.044400
      4 O4           0.6120     1.1040    -0.4310 o          1 NIE      -0.400000
      5 O5           1.5460    -0.6270     0.3930 o          1 NIE      -0.400000
      6 H1          -1.8530     0.2820    -1.3460 hc         1 NIE       0.061033
      7 H1A         -2.8270    -0.4300    -0.0660 hc         1 NIE       0.061033
      8 H1B         -2.0250     1.1100     0.2120 hc         1 NIE       0.061033
      9 H2          -0.6740    -1.6320    -0.1840 h1         1 NIE       0.091200
     10 H2A         -0.8260    -0.7910     1.3530 h1         1 NIE       0.091200
@<TRIPOS>BOND
     1     1     3 1   
     2     1     4 1   
     3     1     5 1   
     4     2     3 1   
     5     2     6 1   
     6     2     7 1   
     7     2     8 1   
     8     3     9 1   
     9     3    10 1   
@<TRIPOS>SUBSTRUCTURE
     1 NIE         1 TEMP              0 ****  ****    0 ROOT
