@<TRIPOS>MOLECULE
NIF
   33    35     1     0     0
SMALL
No Charge or Current Charge


@<TRIPOS>ATOM
      1 C1          -3.3960     0.1820     0.3850 cc         1 NIF       0.404700
      2 N1          -2.9460    -1.0170     0.6520 n2         1 NIF      -0.387800
      3 O1          -1.0940    -3.1600     1.0740 o          1 NIF      -0.509000
      4 S1          -2.2770     1.4870    -0.0080 ss         1 NIF      -0.051400
      5 C2          -1.0590     0.2850     0.2130 cc         1 NIF       0.010000
      6 N2          -1.5670    -0.9410     0.5480 n          1 NIF       0.065000
      7 C3           1.1280    -0.4230     0.2530 cd         1 NIF       0.460600
      8 N3           0.2160     0.6190     0.0510 nd         1 NIF      -0.384600
      9 C4           0.6880    -1.6860     0.5930 cc         1 NIF      -0.500200
     10 N4           5.3140     0.6130    -0.4500 n7         1 NIF      -0.842400
     11 C5          -0.7170    -2.0350     0.7680 c          1 NIF       0.568000
     12 N5           2.4790    -0.1030     0.0770 nh         1 NIF      -0.651400
     13 C6          -4.8730     0.4700     0.3950 c3         1 NIF      -0.108700
     14 C7          -5.5380     0.2950    -0.9870 c3         1 NIF      -0.083100
     15 C8           3.5360    -1.1610    -0.0260 c6         1 NIF       0.177800
     16 C9           4.7640    -0.7060    -0.8780 c6         1 NIF       0.137800
     17 C10          4.2470     1.6540    -0.4620 c6         1 NIF       0.137800
     18 C11          3.0110     1.2640     0.4080 c6         1 NIF       0.177800
     19 H4           1.3700    -2.5030     0.7700 ha         1 NIF       0.215000
     20 H6          -5.3740    -0.1860     1.1170 hc         1 NIF       0.061200
     21 H6A         -5.0430     1.4960     0.7450 hc         1 NIF       0.061200
     22 H7          -5.0880     0.9720    -1.7230 hc         1 NIF       0.047700
     23 H7A         -5.4190    -0.7340    -1.3470 hc         1 NIF       0.047700
     24 H7B         -6.6100     0.5160    -0.9280 hc         1 NIF       0.047700
     25 H8           3.8800    -1.4370     0.9810 h1         1 NIF       0.057950
     26 H8A          3.1310    -2.0700    -0.4920 h1         1 NIF       0.057950
     27 H9           4.4530    -0.6410    -1.9320 h1         1 NIF       0.064450
     28 H9A          5.5490    -1.4740    -0.8200 h1         1 NIF       0.064450
     29 H10          4.6550     2.6110    -0.1030 h1         1 NIF       0.064450
     30 H10A         3.9090     1.8150    -1.4970 h1         1 NIF       0.064450
     31 H11          2.2480     2.0430     0.2730 h1         1 NIF       0.057950
     32 H11A         3.3020     1.2920     1.4680 h1         1 NIF       0.057950
     33 HN4          5.6610     0.5190     0.5140 hn         1 NIF       0.406000
@<TRIPOS>BOND
     1     1     2 2   
     2     1     4 1   
     3     1    13 1   
     4     2     6 1   
     5     3    11 2   
     6     4     5 1   
     7     5     6 1   
     8     5     8 2   
     9     6    11 1   
    10     7     8 1   
    11     7     9 2   
    12     7    12 1   
    13     9    11 1   
    14     9    19 1   
    15    10    16 1   
    16    10    17 1   
    17    10    33 1   
    18    12    15 1   
    19    12    18 1   
    20    13    14 1   
    21    13    20 1   
    22    13    21 1   
    23    14    22 1   
    24    14    23 1   
    25    14    24 1   
    26    15    16 1   
    27    15    25 1   
    28    15    26 1   
    29    16    27 1   
    30    16    28 1   
    31    17    18 1   
    32    17    29 1   
    33    17    30 1   
    34    18    31 1   
    35    18    32 1   
@<TRIPOS>SUBSTRUCTURE
     1 NIF         1 TEMP              0 ****  ****    0 ROOT
