@<TRIPOS>MOLECULE
NIF
   33    35     1     0     0
SMALL
bcc


@<TRIPOS>ATOM
      1 C1          -3.3310     0.5040     0.0610 cc         1 NIF       0.404700
      2 N1          -2.8590    -0.6710    -0.0980 n2         1 NIF      -0.387800
      3 O1          -1.3380    -2.9170    -0.3590 o          1 NIF      -0.584500
      4 S1          -2.1220     1.7570     0.2610 ss         1 NIF      -0.196300
      5 C2          -0.8990     0.5350     0.1120 cc         1 NIF       0.205600
      6 N2          -1.5080    -0.6600    -0.0740 n          1 NIF       0.014300
      7 C3           1.1760    -0.3510     0.0330 cd         1 NIF       0.460600
      8 N3           0.3670     0.7400     0.1680 nd         1 NIF      -0.384600
      9 C4           0.6390    -1.6240    -0.1380 cc         1 NIF      -0.450200
     10 N4           5.3080     0.5530    -0.1380 n7         1 NIF      -0.787200
     11 C5          -0.7540    -1.8550    -0.2110 c          1 NIF       0.643500
     12 N5           2.5020    -0.0930     0.0690 nh         1 NIF      -0.651400
     13 C6          -4.7800     0.8370     0.0830 c3         1 NIF      -0.108700
     14 C7          -5.6840    -0.3740    -0.0880 c3         1 NIF      -0.083100
     15 C8           3.4890    -1.1580     0.0130 c6         1 NIF       0.177800
     16 C9           4.7640    -0.6770    -0.6750 c6         1 NIF       0.137800
     17 C10          4.2860     1.5820    -0.1080 c6         1 NIF       0.137800
     18 C11          3.0140     1.1600     0.6120 c6         1 NIF       0.177800
     19 H4           1.2610    -2.5020    -0.2050 ha         1 NIF       0.165000
     20 H6          -4.9980     1.3440     1.0270 hc         1 NIF       0.061200
     21 H6A         -4.9720     1.5730    -0.7010 hc         1 NIF       0.061200
     22 H7          -5.5060    -0.8760    -1.0370 hc         1 NIF       0.047700
     23 H7A         -5.5370    -1.0970     0.7130 hc         1 NIF       0.047700
     24 H7B         -6.7240    -0.0530    -0.0650 hc         1 NIF       0.047700
     25 H8           3.7190    -1.5080     1.0280 h1         1 NIF       0.057950
     26 H8A          3.1050    -2.0060    -0.5490 h1         1 NIF       0.057950
     27 H9           4.5520    -0.5250    -1.7380 h1         1 NIF       0.064450
     28 H9A          5.5130    -1.4670    -0.6100 h1         1 NIF       0.064450
     29 H10          4.6830     2.4760     0.3770 h1         1 NIF       0.064450
     30 H10A         4.0410     1.8560    -1.1390 h1         1 NIF       0.064450
     31 H11          2.2580     1.9330     0.5200 h1         1 NIF       0.057950
     32 H11A         3.2250     1.0280     1.6820 h1         1 NIF       0.057950
     33 HN4          5.6510     0.3900     0.8030 hn         1 NIF       0.350800
@<TRIPOS>BOND
     1     1     2 2   
     2     1     4 1   
     3     1    13 1   
     4     2     6 1   
     5     3    11 2   
     6     4     5 1   
     7     5     6 1   
     8     5     8 2   
     9     6    11 1   
    10     7     8 1   
    11     7     9 2   
    12     7    12 1   
    13     9    11 1   
    14     9    19 1   
    15    10    16 1   
    16    10    17 1   
    17    10    33 1   
    18    12    15 1   
    19    12    18 1   
    20    13    14 1   
    21    13    20 1   
    22    13    21 1   
    23    14    22 1   
    24    14    23 1   
    25    14    24 1   
    26    15    16 1   
    27    15    25 1   
    28    15    26 1   
    29    16    27 1   
    30    16    28 1   
    31    17    18 1   
    32    17    29 1   
    33    17    30 1   
    34    18    31 1   
    35    18    32 1   
@<TRIPOS>SUBSTRUCTURE
     1 NIF         1 TEMP              0 ****  ****    0 ROOT
