@<TRIPOS>MOLECULE
NIG
   20    19     1     0     0
SMALL
No Charge or Current Charge


@<TRIPOS>ATOM
      1 O1          -1.6920     2.1550    -0.1870 o          1 NIG      -0.743500
      2 NF          -3.0620    -1.7590     0.5190 n2         1 NIG      -0.936100
      3 N           -1.2120    -1.0770    -0.6030 nu         1 NIG      -0.895400
      4 CA          -0.7460    -0.0230     0.3630 c3         1 NIG       0.064500
      5 CB           0.6710     0.4750    -0.0400 c3         1 NIG      -0.049400
      6 CG           1.7910    -0.5910     0.1030 c3         1 NIG      -0.199400
      7 CD           3.1600     0.0340    -0.2270 c          1 NIG       0.713000
      8 OE1          3.5390     0.0160    -1.3880 o          1 NIG      -0.763000
      9 OE2          3.7850     0.5650     0.6780 o          1 NIG      -0.763000
     10 C           -1.7660     1.1770     0.5470 c          1 NIG       0.705000
     11 O2          -2.6030     1.0770     1.4350 o          1 NIG      -0.743500
     12 HNF         -2.8030    -0.8390     0.9100 hn         1 NIG       0.375400
     13 HF          -2.2020    -2.8720    -1.0350 h5         1 NIG      -0.030200
     14 HN          -0.5840    -1.3150    -1.3670 hn         1 NIG       0.462000
     15 HA          -0.6450    -0.4840     1.3550 h1         1 NIG       0.035700
     16 HB1          0.6510     0.8550    -1.0690 hc         1 NIG       0.047700
     17 HB2          0.9290     1.3280     0.6010 hc         1 NIG       0.047700
     18 HG1          1.7620    -0.9180     1.1500 hc         1 NIG       0.011200
     19 HG2          1.5540    -1.3870    -0.6140 hc         1 NIG       0.011200
     20 CF          -2.2050    -1.9960    -0.3850 c2         1 NIG       0.652100
@<TRIPOS>BOND
     1     1    10 1   
     2     2    12 1   
     3     2    20 2   
     4     3     4 1   
     5     3    14 1   
     6     3    20 1   
     7     4     5 1   
     8     4    10 1   
     9     4    15 1   
    10     5     6 1   
    11     5    16 1   
    12     5    17 1   
    13     6     7 1   
    14     6    18 1   
    15     6    19 1   
    16     7     8 1   
    17     7     9 1   
    18    10    11 1   
    19    13    20 1   
@<TRIPOS>SUBSTRUCTURE
     1 NIG         1 TEMP              0 ****  ****    0 ROOT
