@<TRIPOS>MOLECULE
NIG
   20    19     1     0     0
SMALL
bcc


@<TRIPOS>ATOM
      1 O1          -2.5720     1.1310    -0.9020 o          1 NIG      -0.848800
      2 NF          -2.8560    -2.0460     0.7160 n2         1 NIG      -0.936100
      3 N           -1.0630    -1.1240    -0.5520 nu         1 NIG      -0.840200
      4 CA          -0.7720     0.0410     0.2490 c3         1 NIG       0.064500
      5 CB           0.6390     0.5400    -0.0710 c3         1 NIG      -0.049400
      6 CG           1.7260    -0.4620     0.2830 c3         1 NIG      -0.199400
      7 CD           3.1700    -0.0150    -0.0000 c          1 NIG       0.923600
      8 OE1          3.3410     1.0500    -0.6260 o          1 NIG      -0.868300
      9 OE2          4.0680    -0.7770     0.4180 o          1 NIG      -0.868300
     10 C           -1.8050     1.1870     0.0740 c          1 NIG       0.915600
     11 O2          -1.7450     2.0870     0.9360 o          1 NIG      -0.848800
     12 HNF         -2.6380    -1.3390     1.4130 hn         1 NIG       0.375400
     13 HF          -2.2570    -2.6680    -1.1190 h5         1 NIG      -0.030200
     14 HN          -0.7310    -1.1100    -1.5030 hn         1 NIG       0.406800
     15 HA          -0.7800    -0.2590     1.3040 h1         1 NIG       0.035700
     16 HB1          0.6940     0.7990    -1.1340 hc         1 NIG       0.047700
     17 HB2          0.8010     1.4690     0.4770 hc         1 NIG       0.047700
     18 HG1          1.6460    -0.7220     1.3440 hc         1 NIG       0.011200
     19 HG2          1.5550    -1.4050    -0.2500 hc         1 NIG       0.011200
     20 CF          -2.0980    -1.9550    -0.3100 c2         1 NIG       0.652100
@<TRIPOS>BOND
     1     1    10 1   
     2     2    12 1   
     3     2    20 2   
     4     3     4 1   
     5     3    14 1   
     6     3    20 1   
     7     4     5 1   
     8     4    10 1   
     9     4    15 1   
    10     5     6 1   
    11     5    16 1   
    12     5    17 1   
    13     6     7 1   
    14     6    18 1   
    15     6    19 1   
    16     7     8 1   
    17     7     9 1   
    18    10    11 1   
    19    13    20 1   
@<TRIPOS>SUBSTRUCTURE
     1 NIG         1 TEMP              0 ****  ****    0 ROOT
