@<TRIPOS>MOLECULE
NIH
   37    38     1     0     0
SMALL
bcc


@<TRIPOS>ATOM
      1 N1           2.8560    -1.6250     0.4520 ns         1 NIH      -0.495400
      2 C2           1.9350    -1.2650    -0.4730 cc         1 NIH       0.743800
      3 N3           1.9800    -0.0950    -1.0790 nd         1 NIH      -0.725300
      4 C4           2.9780     0.7160    -0.7340 cd         1 NIH       0.244600
      5 C5           3.9550     0.4510     0.1980 cc         1 NIH      -0.403400
      6 C6           3.9110    -0.8240     0.8600 c          1 NIH       0.738700
      7 C7           4.9910     1.4820     0.4410 c          1 NIH       0.705300
      8 N8           5.8250     1.2270     1.4690 ns         1 NIH      -0.448400
      9 O9           5.0520     2.5050    -0.2270 o          1 NIH      -0.600100
     10 O10          4.6850    -1.2520     1.7100 o          1 NIH      -0.643500
     11 O11          6.9250     2.0150     1.6390 oh         1 NIH      -0.387100
     12 N12          0.9740    -2.1350    -0.7710 nu         1 NIH      -0.843200
     13 C13         -0.1050    -1.8260    -1.6880 c3         1 NIH       0.291100
     14 C14         -1.1500    -0.9320    -1.0680 ca         1 NIH      -0.136300
     15 C15         -1.2000     0.4230    -1.3770 ca         1 NIH      -0.028500
     16 C16         -2.1530     1.2380    -0.7870 ca         1 NIH      -0.208800
     17 C17         -3.0700     0.7140     0.1170 ca         1 NIH      -0.018000
     18 C18         -3.0200    -0.6350     0.4230 ca         1 NIH      -0.208800
     19 C19         -2.0640    -1.4550    -0.1670 ca         1 NIH      -0.028500
     20 C20         -3.9840    -1.2470     1.3920 c3         1 NIH       0.725200
     21 F21         -4.8700    -0.3670     1.8630 f          1 NIH      -0.229633
     22 F22         -4.6780    -2.2450     0.8300 f          1 NIH      -0.229633
     23 F23         -3.3490    -1.7720     2.4480 f          1 NIH      -0.229633
     24 C24         -2.2430     2.6910    -1.1380 c3         1 NIH       0.725200
     25 F25         -3.2810     2.9330    -1.9510 f          1 NIH      -0.229633
     26 F26         -2.4200     3.4540    -0.0530 f          1 NIH      -0.229633
     27 F27         -1.1480     3.1360    -1.7590 f          1 NIH      -0.229633
     28 H1           2.7940    -2.5370     0.8890 hn         1 NIH       0.329500
     29 H4           2.9970     1.6700    -1.2500 h4         1 NIH       0.190000
     30 H8           5.8640     0.3130     1.9050 hn         1 NIH       0.367500
     31 H11          6.6850     2.6720     2.3050 ho         1 NIH       0.405000
     32 H12          0.9310    -3.0090    -0.2700 hn         1 NIH       0.447800
     33 H131         0.2990    -1.3720    -2.5910 h1         1 NIH       0.075200
     34 H132        -0.5500    -2.7770    -1.9760 h1         1 NIH       0.075200
     35 H15         -0.4800     0.8250    -2.0750 ha         1 NIH       0.158000
     36 H17         -3.8130     1.3530     0.5740 ha         1 NIH       0.168000
     37 H19         -2.0270    -2.5120     0.0720 ha         1 NIH       0.158000
@<TRIPOS>BOND
     1     1     2 1   
     2     1     6 1   
     3     1    28 1   
     4     2     3 2   
     5     2    12 1   
     6     3     4 1   
     7     4     5 2   
     8     4    29 1   
     9     5     6 1   
    10     5     7 1   
    11     6    10 2   
    12     7     8 1   
    13     7     9 2   
    14     8    11 1   
    15     8    30 1   
    16    11    31 1   
    17    12    13 1   
    18    12    32 1   
    19    13    14 1   
    20    13    33 1   
    21    13    34 1   
    22    14    15 ar  
    23    14    19 ar  
    24    15    16 ar  
    25    15    35 1   
    26    16    17 ar  
    27    16    24 1   
    28    17    18 ar  
    29    17    36 1   
    30    18    19 ar  
    31    18    20 1   
    32    19    37 1   
    33    20    21 1   
    34    20    22 1   
    35    20    23 1   
    36    24    25 1   
    37    24    26 1   
    38    24    27 1   
@<TRIPOS>SUBSTRUCTURE
     1 NIH         1 TEMP              0 ****  ****    0 ROOT
