@<TRIPOS>MOLECULE
NIH
   37    38     1     0     0
SMALL
No Charge or Current Charge


@<TRIPOS>ATOM
      1 N1           2.8470    -1.1920     0.7540 ns         1 NIH      -0.428400
      2 C2           2.0780    -1.0560    -0.3320 cc         1 NIH       0.743800
      3 N3           2.3000    -0.2110    -1.3160 nd         1 NIH      -0.725300
      4 C4           3.4260     0.6130    -1.1920 cd         1 NIH       0.194600
      5 C5           4.2350     0.4990    -0.0690 cc         1 NIH      -0.403400
      6 C6           3.9480    -0.4690     0.9890 c          1 NIH       0.596200
      7 C7           5.4050     1.4060    -0.0070 c          1 NIH       0.638300
      8 N8           6.1930     1.3200     1.1300 ns         1 NIH      -0.381400
      9 O9           5.6670     2.2020    -0.9000 o          1 NIH      -0.600100
     10 O10          4.6040    -0.6540     2.0000 o          1 NIH      -0.568000
     11 O11          7.5100     1.9250     1.1880 oh         1 NIH      -0.426100
     12 N12          0.9950    -1.8670    -0.4150 nu         1 NIH      -0.898400
     13 C13         -0.0780    -1.8120    -1.4210 c3         1 NIH       0.291100
     14 C14         -1.2420    -0.9890    -0.8850 ca         1 NIH      -0.136300
     15 C15         -1.2150     0.4130    -0.9850 ca         1 NIH      -0.010500
     16 C16         -2.2800     1.1890    -0.4820 ca         1 NIH      -0.208800
     17 C17         -3.3870     0.5400     0.1040 ca         1 NIH       0.000000
     18 C18         -3.4310    -0.8670     0.2020 ca         1 NIH      -0.208800
     19 C19         -2.3460    -1.6250    -0.2870 ca         1 NIH      -0.010500
     20 C20         -4.6320    -1.5570     0.8560 c3         1 NIH       0.361300
     21 F21         -5.7880    -0.8900     0.6360 f          1 NIH      -0.108333
     22 F22         -4.8210    -2.8150     0.3940 f          1 NIH      -0.108333
     23 F23         -4.4760    -1.6480     2.1950 f          1 NIH      -0.108333
     24 C24         -2.2470     2.7170    -0.5930 c3         1 NIH       0.361300
     25 F25         -2.8340     3.1380    -1.7350 f          1 NIH      -0.108333
     26 F26         -2.8940     3.3200     0.4300 f          1 NIH      -0.108333
     27 F27         -0.9860     3.2080    -0.5920 f          1 NIH      -0.108333
     28 H1           2.6100    -1.8760     1.4510 hn         1 NIH       0.329500
     29 H4           3.6170     1.3210    -2.0010 h4         1 NIH       0.240000
     30 H8           6.0100     0.5540     1.7810 hn         1 NIH       0.367500
     31 H11          7.4970     2.4270     2.0370 ho         1 NIH       0.444000
     32 H12          0.8310    -2.4420     0.4050 hn         1 NIH       0.503000
     33 H131         0.2740    -1.3770    -2.3670 h1         1 NIH       0.075200
     34 H132        -0.4260    -2.8280    -1.6550 h1         1 NIH       0.075200
     35 H15         -0.3580     0.8960    -1.4520 ha         1 NIH       0.140000
     36 H17         -4.2170     1.1320     0.4880 ha         1 NIH       0.150000
     37 H19         -2.3560    -2.7110    -0.2050 ha         1 NIH       0.140000
@<TRIPOS>BOND
     1     1     2 1   
     2     1     6 1   
     3     1    28 1   
     4     2     3 2   
     5     2    12 1   
     6     3     4 1   
     7     4     5 2   
     8     4    29 1   
     9     5     6 1   
    10     5     7 1   
    11     6    10 2   
    12     7     8 1   
    13     7     9 2   
    14     8    11 1   
    15     8    30 1   
    16    11    31 1   
    17    12    13 1   
    18    12    32 1   
    19    13    14 1   
    20    13    33 1   
    21    13    34 1   
    22    14    15 ar  
    23    14    19 ar  
    24    15    16 ar  
    25    15    35 1   
    26    16    17 ar  
    27    16    24 1   
    28    17    18 ar  
    29    17    36 1   
    30    18    19 ar  
    31    18    20 1   
    32    19    37 1   
    33    20    21 1   
    34    20    22 1   
    35    20    23 1   
    36    24    25 1   
    37    24    26 1   
    38    24    27 1   
@<TRIPOS>SUBSTRUCTURE
     1 NIH         1 TEMP              0 ****  ****    0 ROOT
