@<TRIPOS>MOLECULE
NII
   84    87     1     0     0
SMALL
abcg2


@<TRIPOS>ATOM
      1 O6           3.9560     7.6830    -0.3160 oh         1 NII      -0.658000
      2 C30          2.7830     6.9440    -0.0620 c3         1 NII       0.167600
      3 C29          3.0900     5.4710    -0.2470 c3         1 NII      -0.101400
      4 C28          1.8560     4.6190     0.0010 c3         1 NII       0.225800
      5 N3           2.1830     3.2210    -0.1680 nu         1 NII      -0.955200
      6 C9           1.3070     2.2110    -0.0720 ca         1 NII       0.403000
      7 C8          -0.0520     2.4960     0.2310 ca         1 NII      -0.113000
      8 C7          -0.9940     1.5130     0.3450 ca         1 NII      -0.094100
      9 C14         -2.3800     1.9030     0.6680 c          1 NII       0.583600
     10 O1          -2.7100     3.0640     0.8070 o          1 NII      -0.523000
     11 N2          -3.2930     0.8800     0.8110 n          1 NII      -0.362900
     12 C18         -4.6710     1.2500     1.1410 c3         1 NII       0.091000
     13 C19         -5.5080     1.5500    -0.0970 c3         1 NII      -0.095400
     14 C20         -6.9350     1.8960     0.3060 c3         1 NII       0.168800
     15 N5          -7.7290     2.4440    -0.7770 n3         1 NII      -0.712100
     16 C24         -7.9410     1.4960    -1.8500 c3         1 NII       0.150350
     17 C23         -8.9910     2.9470    -0.2800 c3         1 NII       0.150350
     18 C13         -3.0160    -0.4660     0.5980 c          1 NII       0.608600
     19 O4          -3.9290    -1.2760     0.6860 o          1 NII      -0.570500
     20 C10          1.6570     0.8550    -0.2610 ca         1 NII      -0.252600
     21 C11          3.0250     0.4710    -0.5770 c          1 NII       0.608600
     22 O2           3.9380     1.2800    -0.6640 o          1 NII      -0.570500
     23 N1           3.3010    -0.8760    -0.7920 n          1 NII      -0.362900
     24 C15          4.6800    -1.2450    -1.1230 c3         1 NII       0.091000
     25 C16          5.5170    -1.5450     0.1140 c3         1 NII      -0.095400
     26 C17          6.9460    -1.8850    -0.2890 c3         1 NII       0.168800
     27 N4           7.7400    -2.4350     0.7920 n3         1 NII      -0.712100
     28 C21          9.0040    -2.9330     0.2940 c3         1 NII       0.150350
     29 C22          7.9510    -1.4890     1.8670 c3         1 NII       0.150350
     30 C5           0.6720    -0.1480    -0.1420 ca         1 NII       0.005000
     31 C6           1.0030    -1.5080    -0.3230 ca         1 NII      -0.094100
     32 C12          2.3890    -1.8980    -0.6480 c          1 NII       0.583600
     33 O3           2.7180    -3.0590    -0.7870 o          1 NII      -0.523000
     34 C4          -0.6630     0.1530     0.1640 ca         1 NII       0.005000
     35 C3          -1.6470    -0.8500     0.2820 ca         1 NII      -0.252600
     36 C2          -1.2980    -2.2060     0.0950 ca         1 NII       0.403000
     37 C1           0.0620    -2.4920    -0.2090 ca         1 NII      -0.113000
     38 N6          -2.1730    -3.2170     0.1940 nu         1 NII      -0.955200
     39 C25         -1.8490    -4.6140     0.0160 c3         1 NII       0.225800
     40 C26         -3.0810    -5.4670     0.2680 c3         1 NII      -0.101400
     41 C27         -2.7770    -6.9380     0.0690 c3         1 NII       0.167600
     42 O5          -3.9490    -7.6780     0.3300 oh         1 NII      -0.658000
     43 HO6          3.7490     8.6170    -0.2160 ho         1 NII       0.447000
     44 H30          2.4160     7.1120     0.9600 h1         1 NII       0.019700
     45 H30A         1.9700     7.2340    -0.7410 h1         1 NII       0.019700
     46 H29          3.4530     5.2980    -1.2640 hc         1 NII       0.066450
     47 H29A         3.8850     5.1730     0.4420 hc         1 NII       0.066450
     48 H28          1.4770     4.8050     1.0120 h1         1 NII       0.045700
     49 H28A         1.0620     4.9110    -0.6940 h1         1 NII       0.045700
     50 HN3          3.1380     2.9670    -0.3740 hn         1 NII       0.536000
     51 H8          -0.3570     3.5210     0.3830 ha         1 NII       0.144000
     52 H18         -5.1110     0.4360     1.7140 h1         1 NII       0.068200
     53 H18A        -4.6350     2.1180     1.7950 h1         1 NII       0.068200
     54 H19         -5.0750     2.3920    -0.6420 hc         1 NII       0.058700
     55 H19A        -5.4870     0.6840    -0.7620 hc         1 NII       0.058700
     56 H20         -7.4140     1.0040     0.7500 h1         1 NII       0.029950
     57 H20A        -6.8980     2.6490     1.0990 h1         1 NII       0.029950
     58 H24         -8.4550     0.5780    -1.5210 h1         1 NII       0.029950
     59 H24A        -8.5500     1.9550    -2.6300 h1         1 NII       0.029950
     60 H24B        -6.9960     1.2030    -2.3060 h1         1 NII       0.029950
     61 H23         -8.8180     3.7100     0.4810 h1         1 NII       0.029950
     62 H23A        -9.5560     3.4070    -1.0920 h1         1 NII       0.029950
     63 H23B        -9.6270     2.1670     0.1680 h1         1 NII       0.029950
     64 H15          4.6430    -2.1140    -1.7770 h1         1 NII       0.068200
     65 H15A         5.1190    -0.4310    -1.6960 h1         1 NII       0.068200
     66 H16          5.4930    -0.6820     0.7820 hc         1 NII       0.058700
     67 H16A         5.0870    -2.3900     0.6570 hc         1 NII       0.058700
     68 H17          6.9100    -2.6370    -1.0850 h1         1 NII       0.029950
     69 H17A         7.4220    -0.9910    -0.7300 h1         1 NII       0.029950
     70 H21          9.6370    -2.1500    -0.1530 h1         1 NII       0.029950
     71 H21A         9.5710    -3.3920     1.1050 h1         1 NII       0.029950
     72 H21B         8.8330    -3.6950    -0.4680 h1         1 NII       0.029950
     73 H22          7.0050    -1.1980     2.3240 h1         1 NII       0.029950
     74 H22A         8.5590    -1.9480     2.6470 h1         1 NII       0.029950
     75 H22B         8.4640    -0.5700     1.5420 h1         1 NII       0.029950
     76 H1           0.3660    -3.5170    -0.3620 ha         1 NII       0.144000
     77 HN6         -3.1290    -2.9620     0.3950 hn         1 NII       0.536000
     78 H25         -1.4740    -4.7950    -0.9980 h1         1 NII       0.045700
     79 H25A        -1.0510    -4.9100     0.7060 h1         1 NII       0.045700
     80 H26         -3.4370    -5.3000     1.2880 hc         1 NII       0.066450
     81 H26A        -3.8810    -5.1620    -0.4130 hc         1 NII       0.066450
     82 H27         -2.4210    -7.0990    -0.9580 h1         1 NII       0.019700
     83 H27A        -1.9580    -7.2340     0.7370 h1         1 NII       0.019700
     84 HO5         -3.7460    -8.6110     0.2160 ho         1 NII       0.447000
@<TRIPOS>BOND
     1     1     2 1   
     2     1    43 1   
     3     2     3 1   
     4     2    44 1   
     5     2    45 1   
     6     3     4 1   
     7     3    46 1   
     8     3    47 1   
     9     4     5 1   
    10     4    48 1   
    11     4    49 1   
    12     5     6 1   
    13     5    50 1   
    14     6     7 ar  
    15     6    20 ar  
    16     7     8 ar  
    17     7    51 1   
    18     8     9 1   
    19     8    34 ar  
    20     9    10 2   
    21     9    11 1   
    22    11    12 1   
    23    11    18 1   
    24    12    13 1   
    25    12    52 1   
    26    12    53 1   
    27    13    14 1   
    28    13    54 1   
    29    13    55 1   
    30    14    15 1   
    31    14    56 1   
    32    14    57 1   
    33    15    16 1   
    34    15    17 1   
    35    16    58 1   
    36    16    59 1   
    37    16    60 1   
    38    17    61 1   
    39    17    62 1   
    40    17    63 1   
    41    18    19 2   
    42    18    35 1   
    43    20    21 1   
    44    20    30 ar  
    45    21    22 2   
    46    21    23 1   
    47    23    24 1   
    48    23    32 1   
    49    24    25 1   
    50    24    64 1   
    51    24    65 1   
    52    25    26 1   
    53    25    66 1   
    54    25    67 1   
    55    26    27 1   
    56    26    68 1   
    57    26    69 1   
    58    27    28 1   
    59    27    29 1   
    60    28    70 1   
    61    28    71 1   
    62    28    72 1   
    63    29    73 1   
    64    29    74 1   
    65    29    75 1   
    66    30    31 ar  
    67    30    34 ar  
    68    31    32 1   
    69    31    37 ar  
    70    32    33 2   
    71    34    35 ar  
    72    35    36 ar  
    73    36    37 ar  
    74    36    38 1   
    75    37    76 1   
    76    38    39 1   
    77    38    77 1   
    78    39    40 1   
    79    39    78 1   
    80    39    79 1   
    81    40    41 1   
    82    40    80 1   
    83    40    81 1   
    84    41    42 1   
    85    41    82 1   
    86    41    83 1   
    87    42    84 1   
@<TRIPOS>SUBSTRUCTURE
     1 NII         1 TEMP              0 ****  ****    0 ROOT
