@<TRIPOS>MOLECULE
NII
   84    87     1     0     0
SMALL
No Charge or Current Charge


@<TRIPOS>ATOM
      1 O6           4.2770     7.6280    -0.3220 oh         1 NII      -0.658000
      2 C30          3.0210     6.9430    -0.3520 c3         1 NII       0.167600
      3 C29          3.2350     5.4570    -0.0160 c3         1 NII      -0.101400
      4 C28          1.9220     4.6570    -0.0310 c3         1 NII       0.225800
      5 N3           2.1830     3.2490     0.2990 nu         1 NII      -0.955200
      6 C9           1.2690     2.1970     0.2460 ca         1 NII       0.403000
      7 C8          -0.0680     2.4570     0.5670 ca         1 NII      -0.113000
      8 C7          -1.0470     1.4470     0.5310 ca         1 NII      -0.094100
      9 C14         -2.4670     1.7900     0.8830 c          1 NII       0.583600
     10 O1          -2.7800     2.9300     1.2040 o          1 NII      -0.523000
     11 N2          -3.4130     0.7630     0.8190 n          1 NII      -0.362900
     12 C18         -4.8230     1.0820     1.1900 c3         1 NII       0.091000
     13 C19         -5.6730     1.5220    -0.0190 c3         1 NII      -0.095400
     14 C20         -7.1320     1.8450     0.3700 c3         1 NII       0.168800
     15 N5          -7.9560     2.4150    -0.7260 n3         1 NII      -0.712100
     16 C24         -8.1250     1.5070    -1.8860 c3         1 NII       0.150350
     17 C23         -9.2560     2.9240    -0.2340 c3         1 NII       0.150350
     18 C13         -3.1000    -0.5570     0.4680 c          1 NII       0.608600
     19 O4          -3.9830    -1.4070     0.4320 o          1 NII      -0.570500
     20 C10          1.6680     0.8870    -0.1110 ca         1 NII      -0.252600
     21 C11          3.1090     0.5630    -0.4500 c          1 NII       0.608600
     22 O2           3.9920     1.4130    -0.4140 o          1 NII      -0.570500
     23 N1           3.4220    -0.7560    -0.8010 n          1 NII      -0.362900
     24 C15          4.8320    -1.0760    -1.1720 c3         1 NII       0.091000
     25 C16          5.6820    -1.5150     0.0380 c3         1 NII      -0.095400
     26 C17          7.1410    -1.8380    -0.3500 c3         1 NII       0.168800
     27 N4           7.9650    -2.4080     0.7450 n3         1 NII      -0.712100
     28 C21          9.2650    -2.9180     0.2540 c3         1 NII       0.150350
     29 C22          8.1330    -1.5000     1.9060 c3         1 NII       0.150350
     30 C5           0.6840    -0.1340    -0.1500 ca         1 NII       0.005000
     31 C6           1.0560    -1.4400    -0.5140 ca         1 NII      -0.094100
     32 C12          2.4760    -1.7830    -0.8650 c          1 NII       0.583600
     33 O3           2.7890    -2.9230    -1.1870 o          1 NII      -0.523000
     34 C4          -0.6750     0.1410     0.1680 ca         1 NII       0.005000
     35 C3          -1.6580    -0.8800     0.1290 ca         1 NII      -0.252600
     36 C2          -1.2600    -2.1900    -0.2290 ca         1 NII       0.403000
     37 C1           0.0770    -2.4500    -0.5500 ca         1 NII      -0.113000
     38 N6          -2.1740    -3.2420    -0.2830 nu         1 NII      -0.955200
     39 C25         -1.9130    -4.6510     0.0450 c3         1 NII       0.225800
     40 C26         -3.2260    -5.4500     0.0300 c3         1 NII      -0.101400
     41 C27         -3.0130    -6.9370     0.3630 c3         1 NII       0.167600
     42 O5          -4.2690    -7.6220     0.3330 oh         1 NII      -0.658000
     43 HO6          4.0950     8.5700    -0.5400 ho         1 NII       0.447000
     44 H30          2.3300     7.3850     0.3790 h1         1 NII       0.019700
     45 H30A         2.5640     7.0300    -1.3470 h1         1 NII       0.019700
     46 H29          3.9340     5.0220    -0.7410 hc         1 NII       0.066450
     47 H29A         3.6970     5.3740     0.9750 hc         1 NII       0.066450
     48 H28          1.2240     5.0970     0.6940 h1         1 NII       0.045700
     49 H28A         1.4670     4.7290    -1.0290 h1         1 NII       0.045700
     50 HN3          3.1390     2.9220     0.1050 hn         1 NII       0.536000
     51 H8          -0.3520     3.4630     0.8570 ha         1 NII       0.144000
     52 H18         -5.2930     0.2100     1.6630 h1         1 NII       0.068200
     53 H18A        -4.8390     1.8760     1.9490 h1         1 NII       0.068200
     54 H19         -5.2180     2.4080    -0.4760 hc         1 NII       0.058700
     55 H19A        -5.6550     0.7220    -0.7680 hc         1 NII       0.058700
     56 H20         -7.6040     0.9310     0.7570 h1         1 NII       0.029950
     57 H20A        -7.0990     2.5630     1.2010 h1         1 NII       0.029950
     58 H24         -8.6080     0.5680    -1.5820 h1         1 NII       0.029950
     59 H24A        -8.7490     1.9780    -2.6580 h1         1 NII       0.029950
     60 H24B        -7.1600     1.2670    -2.3490 h1         1 NII       0.029950
     61 H23         -9.1070     3.6610     0.5670 h1         1 NII       0.029950
     62 H23A        -9.8130     3.4150    -1.0430 h1         1 NII       0.029950
     63 H23B        -9.8740     2.1060     0.1610 h1         1 NII       0.029950
     64 H15          4.8490    -1.8700    -1.9300 h1         1 NII       0.068200
     65 H15A         5.3030    -0.2040    -1.6450 h1         1 NII       0.068200
     66 H16          5.6640    -0.7150     0.7860 hc         1 NII       0.058700
     67 H16A         5.2270    -2.4020     0.4950 hc         1 NII       0.058700
     68 H17          7.1080    -2.5560    -1.1820 h1         1 NII       0.029950
     69 H17A         7.6130    -0.9240    -0.7370 h1         1 NII       0.029950
     70 H21          9.8830    -2.0990    -0.1410 h1         1 NII       0.029950
     71 H21A         9.8210    -3.4090     1.0640 h1         1 NII       0.029950
     72 H21B         9.1170    -3.6540    -0.5460 h1         1 NII       0.029950
     73 H22          7.1670    -1.2600     2.3680 h1         1 NII       0.029950
     74 H22A         8.7570    -1.9710     2.6780 h1         1 NII       0.029950
     75 H22B         8.6160    -0.5620     1.6030 h1         1 NII       0.029950
     76 H1           0.3610    -3.4560    -0.8390 ha         1 NII       0.144000
     77 HN6         -3.1300    -2.9160    -0.0870 hn         1 NII       0.536000
     78 H25         -1.2150    -5.0900    -0.6820 h1         1 NII       0.045700
     79 H25A        -1.4570    -4.7240     1.0430 h1         1 NII       0.045700
     80 H26         -3.9240    -5.0160     0.7560 hc         1 NII       0.066450
     81 H26A        -3.6890    -5.3660    -0.9610 hc         1 NII       0.066450
     82 H27         -2.3220    -7.3780    -0.3690 h1         1 NII       0.019700
     83 H27A        -2.5550    -7.0250     1.3570 h1         1 NII       0.019700
     84 HO5         -4.0860    -8.5640     0.5490 ho         1 NII       0.447000
@<TRIPOS>BOND
     1     1     2 1   
     2     1    43 1   
     3     2     3 1   
     4     2    44 1   
     5     2    45 1   
     6     3     4 1   
     7     3    46 1   
     8     3    47 1   
     9     4     5 1   
    10     4    48 1   
    11     4    49 1   
    12     5     6 1   
    13     5    50 1   
    14     6     7 ar  
    15     6    20 ar  
    16     7     8 ar  
    17     7    51 1   
    18     8     9 1   
    19     8    34 ar  
    20     9    10 2   
    21     9    11 1   
    22    11    12 1   
    23    11    18 1   
    24    12    13 1   
    25    12    52 1   
    26    12    53 1   
    27    13    14 1   
    28    13    54 1   
    29    13    55 1   
    30    14    15 1   
    31    14    56 1   
    32    14    57 1   
    33    15    16 1   
    34    15    17 1   
    35    16    58 1   
    36    16    59 1   
    37    16    60 1   
    38    17    61 1   
    39    17    62 1   
    40    17    63 1   
    41    18    19 2   
    42    18    35 1   
    43    20    21 1   
    44    20    30 ar  
    45    21    22 2   
    46    21    23 1   
    47    23    24 1   
    48    23    32 1   
    49    24    25 1   
    50    24    64 1   
    51    24    65 1   
    52    25    26 1   
    53    25    66 1   
    54    25    67 1   
    55    26    27 1   
    56    26    68 1   
    57    26    69 1   
    58    27    28 1   
    59    27    29 1   
    60    28    70 1   
    61    28    71 1   
    62    28    72 1   
    63    29    73 1   
    64    29    74 1   
    65    29    75 1   
    66    30    31 ar  
    67    30    34 ar  
    68    31    32 1   
    69    31    37 ar  
    70    32    33 2   
    71    34    35 ar  
    72    35    36 ar  
    73    36    37 ar  
    74    36    38 1   
    75    37    76 1   
    76    38    39 1   
    77    38    77 1   
    78    39    40 1   
    79    39    78 1   
    80    39    79 1   
    81    40    41 1   
    82    40    80 1   
    83    40    81 1   
    84    41    42 1   
    85    41    82 1   
    86    41    83 1   
    87    42    84 1   
@<TRIPOS>SUBSTRUCTURE
     1 NII         1 TEMP              0 ****  ****    0 ROOT
