@<TRIPOS>MOLECULE
NIJ
   34    35     1     0     0
SMALL
abcg2


@<TRIPOS>ATOM
      1 N1           8.5820    -0.4930    20.6000 ns         1 NIJ      -0.160000
      2 C4           8.0610     0.1170    18.2930 ca         1 NIJ       0.338900
      3 C5           7.7230     0.0910    19.6460 ca         1 NIJ      -0.086000
      4 C6           9.9410    -0.3830    20.6410 c          1 NIJ       0.600100
      5 C7          10.5990    -1.2100    21.7300 c3         1 NIJ      -0.153400
      6 C8          11.8720    -0.5620    22.2670 c3         1 NIJ      -0.026100
      7 C10         14.0910    -1.2140    23.2510 ca         1 NIJ      -0.124000
      8 C13         12.9970    -3.2760    24.6770 ca         1 NIJ       0.167000
      9 F           12.4400    -4.3050    25.3730 f          1 NIJ      -0.187000
     10 C12         14.3540    -3.0530    24.7960 ca         1 NIJ      -0.148000
     11 C11         14.8970    -1.9990    24.0650 ca         1 NIJ      -0.080000
     12 C14         12.1690    -2.5070    23.8790 ca         1 NIJ      -0.154000
     13 C9          12.7170    -1.4540    23.1460 ca         1 NIJ      -0.050300
     14 O           10.5810     0.2960    19.8480 o          1 NIJ      -0.578100
     15 C1           6.4920     0.6220    20.0550 ca         1 NIJ      -0.073300
     16 C            6.0790     0.6290    21.4960 c3         1 NIJ      -0.050800
     17 N            7.2740     0.6360    17.3510 nb         1 NIJ      -0.648000
     18 C3           6.0980     1.1420    17.7370 ca         1 NIJ       0.320900
     19 C2           5.6760     1.1480    19.0580 ca         1 NIJ      -0.148000
     20 H1           8.1450    -0.9920    21.3600 hn         1 NIJ       0.152000
     21 H2           9.0040    -0.3010    17.9690 h4         1 NIJ       0.039100
     22 H3           9.8840    -1.4070    22.5300 hc         1 NIJ       0.062700
     23 H4          10.8370    -2.1790    21.2760 hc         1 NIJ       0.062700
     24 H5          12.4800    -0.2250    21.4270 hc         1 NIJ       0.068700
     25 H6          11.6040     0.3400    22.8270 hc         1 NIJ       0.068700
     26 H7          14.5300    -0.4040    22.6800 ha         1 NIJ       0.120000
     27 H8          14.9610    -3.6840    25.4300 ha         1 NIJ       0.134000
     28 H9          15.9590    -1.7980    24.1290 ha         1 NIJ       0.120000
     29 H10         11.1150    -2.7430    23.8400 ha         1 NIJ       0.125000
     30 H11          5.9370    -0.3880    21.8730 hc         1 NIJ       0.047033
     31 H12          6.8460     1.0970    22.1170 hc         1 NIJ       0.047033
     32 H13          5.1430     1.1700    21.6240 hc         1 NIJ       0.047033
     33 H14          5.4670     1.5550    16.9580 h4         1 NIJ       0.022100
     34 H15          4.7130     1.5720    19.3160 ha         1 NIJ       0.122000
@<TRIPOS>BOND
     1     1     3 1   
     2     1     4 1   
     3     1    20 1   
     4     2     3 ar  
     5     2    17 ar  
     6     2    21 1   
     7     3    15 ar  
     8     4     5 1   
     9     4    14 2   
    10     5     6 1   
    11     5    22 1   
    12     5    23 1   
    13     6    13 1   
    14     6    24 1   
    15     6    25 1   
    16     7    11 ar  
    17     7    13 ar  
    18     7    26 1   
    19     8     9 1   
    20     8    10 ar  
    21     8    12 ar  
    22    10    11 ar  
    23    10    27 1   
    24    11    28 1   
    25    12    13 ar  
    26    12    29 1   
    27    15    16 1   
    28    15    19 ar  
    29    16    30 1   
    30    16    31 1   
    31    16    32 1   
    32    17    18 ar  
    33    18    19 ar  
    34    18    33 1   
    35    19    34 1   
@<TRIPOS>SUBSTRUCTURE
     1 NIJ         1 TEMP              0 ****  ****    0 ROOT
