@<TRIPOS>MOLECULE
NIJ
   34    35     1     0     0
SMALL
No Charge or Current Charge


@<TRIPOS>ATOM
      1 N1           8.9110    -0.4020    20.3490 ns         1 NIJ      -0.160000
      2 C4           8.1550     0.9570    18.3860 ca         1 NIJ       0.338900
      3 C5           7.8990     0.2800    19.6080 ca         1 NIJ      -0.086000
      4 C6          10.2620    -0.6120    20.1060 c          1 NIJ       0.600100
      5 C7          10.9820    -1.4190    21.1940 c3         1 NIJ      -0.153400
      6 C8          11.9170    -0.5260    22.0400 c3         1 NIJ      -0.026100
      7 C10         13.8740    -1.9190    22.8760 ca         1 NIJ      -0.124000
      8 C13         12.6890    -2.2010    25.4000 ca         1 NIJ       0.167000
      9 F           12.1160    -2.3380    26.6160 f          1 NIJ      -0.187000
     10 C12         13.9330    -2.7970    25.1460 ca         1 NIJ      -0.148000
     11 C11         14.5280    -2.6570    23.8800 ca         1 NIJ      -0.080000
     12 C14         12.0350    -1.4650    24.4000 ca         1 NIJ      -0.154000
     13 C9          12.6260    -1.3180    23.1300 ca         1 NIJ      -0.050300
     14 O           10.8480    -0.2240    19.1040 o          1 NIJ      -0.578100
     15 C1           6.5780     0.2900    20.1100 ca         1 NIJ      -0.073300
     16 C            6.2080    -0.4080    21.4150 c3         1 NIJ      -0.050800
     17 N            7.2000     1.6080    17.6790 nb         1 NIJ      -0.648000
     18 C3           5.9420     1.6070    18.1700 ca         1 NIJ       0.320900
     19 C2           5.5920     0.9680    19.3690 ca         1 NIJ      -0.148000
     20 H1           8.5810    -0.8030    21.2170 hn         1 NIJ       0.152000
     21 H2           9.1480     0.9950    17.9460 h4         1 NIJ       0.039100
     22 H3          10.2490    -1.8860    21.8640 hc         1 NIJ       0.062700
     23 H4          11.5880    -2.1950    20.7120 hc         1 NIJ       0.062700
     24 H5          12.6550    -0.0460    21.3830 hc         1 NIJ       0.068700
     25 H6          11.3340     0.2900    22.4870 hc         1 NIJ       0.068700
     26 H7          14.3400    -1.8170    21.8980 ha         1 NIJ       0.120000
     27 H8          14.4320    -3.3660    25.9260 ha         1 NIJ       0.134000
     28 H9          15.4920    -3.1180    23.6760 ha         1 NIJ       0.120000
     29 H10         11.0700    -1.0110    24.6130 ha         1 NIJ       0.125000
     30 H11          6.4240    -1.4810    21.3640 hc         1 NIJ       0.047033
     31 H12          6.7680     0.0120    22.2600 hc         1 NIJ       0.047033
     32 H13          5.1410    -0.3000    21.6450 hc         1 NIJ       0.047033
     33 H14          5.1910     2.1360    17.5840 h4         1 NIJ       0.022100
     34 H15          4.5620     1.0040    19.7110 ha         1 NIJ       0.122000
@<TRIPOS>BOND
     1     1     3 1   
     2     1     4 1   
     3     1    20 1   
     4     2     3 ar  
     5     2    17 ar  
     6     2    21 1   
     7     3    15 ar  
     8     4     5 1   
     9     4    14 2   
    10     5     6 1   
    11     5    22 1   
    12     5    23 1   
    13     6    13 1   
    14     6    24 1   
    15     6    25 1   
    16     7    11 ar  
    17     7    13 ar  
    18     7    26 1   
    19     8     9 1   
    20     8    10 ar  
    21     8    12 ar  
    22    10    11 ar  
    23    10    27 1   
    24    11    28 1   
    25    12    13 ar  
    26    12    29 1   
    27    15    16 1   
    28    15    19 ar  
    29    16    30 1   
    30    16    31 1   
    31    16    32 1   
    32    17    18 ar  
    33    18    19 ar  
    34    18    33 1   
    35    19    34 1   
@<TRIPOS>SUBSTRUCTURE
     1 NIJ         1 TEMP              0 ****  ****    0 ROOT
