@<TRIPOS>MOLECULE
NIL
   61    65     1     0     0
SMALL
No Charge or Current Charge


@<TRIPOS>ATOM
      1 O17          0.7140    -0.4710    -0.0720 o          1 NIL      -0.565100
      2 C16          0.9140     0.7280    -0.2380 c          1 NIL       0.624700
      3 N14          2.1850     1.2770    -0.3630 ns         1 NIL      -0.146000
      4 C11          3.4830     0.6950    -0.3790 ca         1 NIL       0.003000
      5 C9           3.7130    -0.6940    -0.4750 ca         1 NIL      -0.126000
      6 C8           5.0260    -1.2050    -0.5000 ca         1 NIL       0.038800
      7 N51          5.2440    -2.5820    -0.6010 na         1 NIL      -0.084300
      8 C56          4.4690    -3.5490    -0.0080 cc         1 NIL      -0.213000
      9 C55          5.0620    -4.7230    -0.4030 cd         1 NIL       0.251300
     10 C58          4.6390    -6.1190    -0.0460 c3         1 NIL      -0.109400
     11 N54          6.1610    -4.4900    -1.2130 nd         1 NIL      -0.668000
     12 C52          6.2570    -3.1690    -1.3240 cc         1 NIL       0.407400
     13 C6           6.1160    -0.3140    -0.4280 ca         1 NIL      -0.113000
     14 C12          4.5840     1.5680    -0.3170 ca         1 NIL      -0.134000
     15 C5           5.9070     1.0770    -0.3300 ca         1 NIL      -0.147300
     16 C2           7.1020     2.0390    -0.2640 c3         1 NIL       0.358300
     17 F4           7.5290     2.3780    -1.5010 f          1 NIL      -0.110333
     18 F3           6.8050     3.1920     0.3810 f          1 NIL      -0.110333
     19 F1           8.1600     1.4990     0.3840 f          1 NIL      -0.110333
     20 C18         -0.2420     1.7130    -0.3070 ca         1 NIL      -0.133600
     21 C25         -0.0450     3.1020    -0.4930 ca         1 NIL      -0.119000
     22 C23         -1.1410     3.9770    -0.5360 ca         1 NIL      -0.087000
     23 C22         -2.4570     3.4950    -0.4050 ca         1 NIL      -0.109300
     24 C27         -3.6190     4.4880    -0.4610 c3         1 NIL      -0.056800
     25 C21         -2.6750     2.1070    -0.2390 ca         1 NIL       0.321000
     26 C19         -1.5680     1.2380    -0.1780 ca         1 NIL      -0.088000
     27 N31         -3.9870     1.6280    -0.0940 nu         1 NIL      -0.931900
     28 C33         -4.6300     0.4360    -0.4010 ca         1 NIL       0.388900
     29 N40         -3.9610    -0.5040    -1.0930 nb         1 NIL      -0.224000
     30 C38         -4.6380    -1.6310    -1.3780 ca         1 NIL       0.151900
     31 C36         -5.9700    -1.8060    -0.9720 ca         1 NIL      -0.260000
     32 C35         -6.5960    -0.7620    -0.2460 cp         1 NIL       0.234500
     33 N34         -5.9020     0.3630     0.0220 nb         1 NIL      -0.258000
     34 C41         -8.0140    -0.8300     0.2390 cp         1 NIL      -0.217500
     35 C49         -8.7170     0.3290     0.6630 ca         1 NIL      -0.028000
     36 C47        -10.0410     0.2030     1.1090 ca         1 NIL      -0.174000
     37 C45        -10.6390    -1.0640     1.1290 ca         1 NIL       0.351900
     38 N44         -9.9930    -2.1840     0.7380 nb         1 NIL      -0.669000
     39 C42         -8.7160    -2.0610     0.3070 ca         1 NIL       0.361900
     40 HN14         2.1900     2.2820    -0.4650 hn         1 NIL       0.160000
     41 H9           2.8840    -1.3880    -0.5560 ha         1 NIL       0.166000
     42 H56          3.6110    -3.3510     0.6210 h4         1 NIL       0.166000
     43 H58          4.4000    -6.6990    -0.9450 hc         1 NIL       0.044367
     44 H58A         5.4350    -6.6440     0.4950 hc         1 NIL       0.044367
     45 H58B         3.7490    -6.1100     0.5940 hc         1 NIL       0.044367
     46 H52          6.9910    -2.6080    -1.8910 h5         1 NIL       0.058100
     47 H6           7.1320    -0.7040    -0.4410 ha         1 NIL       0.144000
     48 H12          4.4060     2.6400    -0.2570 ha         1 NIL       0.132000
     49 H25          0.9510     3.5250    -0.5990 ha         1 NIL       0.116000
     50 H23         -0.9610     5.0420    -0.6720 ha         1 NIL       0.118000
     51 H27         -4.3350     4.2160    -1.2460 hc         1 NIL       0.047700
     52 H27A        -4.1560     4.5210     0.4940 hc         1 NIL       0.047700
     53 H27B        -3.2750     5.5060    -0.6760 hc         1 NIL       0.047700
     54 H19         -1.7390     0.1800    -0.0070 ha         1 NIL       0.173000
     55 HN31        -4.6440     2.3440     0.2090 hn         1 NIL       0.513000
     56 H38         -4.1080    -2.3980    -1.9410 h4         1 NIL       0.030100
     57 H36         -6.4930    -2.7210    -1.2290 ha         1 NIL       0.140000
     58 H49         -8.2520     1.3130     0.6420 ha         1 NIL       0.137000
     59 H47        -10.6020     1.0740     1.4350 ha         1 NIL       0.128000
     60 H45        -11.6660    -1.1880     1.4710 h4         1 NIL       0.022100
     61 H42         -8.2390    -2.9950     0.0180 h4         1 NIL       0.021100
@<TRIPOS>BOND
     1     1     2 2   
     2     2     3 1   
     3     2    20 1   
     4     3     4 1   
     5     3    40 1   
     6     4     5 ar  
     7     4    14 ar  
     8     5     6 ar  
     9     5    41 1   
    10     6     7 1   
    11     6    13 ar  
    12     7     8 1   
    13     7    12 1   
    14     8     9 2   
    15     8    42 1   
    16     9    10 1   
    17     9    11 1   
    18    10    43 1   
    19    10    44 1   
    20    10    45 1   
    21    11    12 2   
    22    12    46 1   
    23    13    15 ar  
    24    13    47 1   
    25    14    15 ar  
    26    14    48 1   
    27    15    16 1   
    28    16    17 1   
    29    16    18 1   
    30    16    19 1   
    31    20    21 ar  
    32    20    26 ar  
    33    21    22 ar  
    34    21    49 1   
    35    22    23 ar  
    36    22    50 1   
    37    23    24 1   
    38    23    25 ar  
    39    24    51 1   
    40    24    52 1   
    41    24    53 1   
    42    25    26 ar  
    43    25    27 1   
    44    26    54 1   
    45    27    28 1   
    46    27    55 1   
    47    28    29 ar  
    48    28    33 ar  
    49    29    30 ar  
    50    30    31 ar  
    51    30    56 1   
    52    31    32 ar  
    53    31    57 1   
    54    32    33 ar  
    55    32    34 1   
    56    34    35 ar  
    57    34    39 ar  
    58    35    36 ar  
    59    35    58 1   
    60    36    37 ar  
    61    36    59 1   
    62    37    38 ar  
    63    37    60 1   
    64    38    39 ar  
    65    39    61 1   
@<TRIPOS>SUBSTRUCTURE
     1 NIL         1 TEMP              0 ****  ****    0 ROOT
