@<TRIPOS>MOLECULE
NIL
   61    65     1     0     0
SMALL
bcc


@<TRIPOS>ATOM
      1 O17          0.7610    -0.4640    -0.9870 o          1 NIL      -0.565100
      2 C16          0.8960     0.7290    -0.7870 c          1 NIL       0.691700
      3 N14          2.0800     1.3030    -0.4330 ns         1 NIL      -0.472100
      4 C11          3.3200     0.6990    -0.2510 ca         1 NIL       0.095600
      5 C9           3.6190    -0.6010    -0.6510 ca         1 NIL      -0.144000
      6 C8           4.8930    -1.1090    -0.4240 ca         1 NIL       0.038800
      7 N51          5.1790    -2.4270    -0.8190 na         1 NIL      -0.135000
      8 C56          4.3230    -3.5050    -0.7870 cc         1 NIL      -0.245600
      9 C55          5.0350    -4.5620    -1.2690 cd         1 NIL       0.316600
     10 C58          4.5910    -5.9730    -1.4330 c3         1 NIL      -0.109400
     11 N54          6.3010    -4.1520    -1.6040 nd         1 NIL      -0.668000
     12 C52          6.3550    -2.8810    -1.3240 cc         1 NIL       0.407400
     13 C6           5.8780    -0.3490     0.1840 ca         1 NIL      -0.131000
     14 C12          4.3140     1.4800     0.3460 ca         1 NIL      -0.152000
     15 C5           5.5750     0.9560     0.5520 ca         1 NIL      -0.147300
     16 C2           6.6550     1.7980     1.1620 c3         1 NIL       0.722200
     17 F4           7.5130     2.2360     0.2300 f          1 NIL      -0.231633
     18 F3           6.1740     2.8740     1.7880 f          1 NIL      -0.231633
     19 F1           7.3760     1.1100     2.0540 f          1 NIL      -0.231633
     20 C18         -0.2470     1.6820    -0.8910 ca         1 NIL      -0.133600
     21 C25         -0.0800     3.0150    -1.2420 ca         1 NIL      -0.137000
     22 C23         -1.1970     3.8330    -1.3230 ca         1 NIL      -0.105000
     23 C22         -2.4740     3.3640    -1.0580 ca         1 NIL      -0.109300
     24 C27         -3.6470     4.2960    -1.1380 c3         1 NIL      -0.056800
     25 C21         -2.6380     2.0060    -0.7130 ca         1 NIL       0.182600
     26 C19         -1.5200     1.1770    -0.6450 ca         1 NIL      -0.106000
     27 N31         -3.9330     1.5800    -0.4480 nu         1 NIL      -0.738300
     28 C33         -4.4450     0.3580    -0.1270 ca         1 NIL       0.914900
     29 N40         -3.6590    -0.7110    -0.0720 nb         1 NIL      -0.750000
     30 C38         -4.2560    -1.8540     0.2410 ca         1 NIL       0.480200
     31 C36         -5.6060    -1.9580     0.5020 ca         1 NIL      -0.408600
     32 C35         -6.3420    -0.7740     0.4260 cp         1 NIL       0.562800
     33 N34         -5.7580     0.3700     0.1100 nb         1 NIL      -0.784000
     34 C41         -7.7950    -0.7240     0.6780 cp         1 NIL      -0.282800
     35 C49         -8.5600     0.3530     0.2360 ca         1 NIL      -0.046000
     36 C47         -9.9200     0.3620     0.4890 ca         1 NIL      -0.257300
     37 C45        -10.4710    -0.7030     1.1870 ca         1 NIL       0.417200
     38 N44         -9.7550    -1.7310     1.6270 nb         1 NIL      -0.669000
     39 C42         -8.4540    -1.7360     1.3750 ca         1 NIL       0.427200
     40 HN14         2.0450     2.2750    -0.1680 hn         1 NIL       0.326500
     41 H9           2.8820    -1.2070    -1.1500 ha         1 NIL       0.184000
     42 H56          3.3190    -3.4340    -0.4030 h4         1 NIL       0.184000
     43 H58          4.6940    -6.3030    -2.4680 hc         1 NIL       0.044367
     44 H58A         5.1840    -6.6510    -0.8160 hc         1 NIL       0.044367
     45 H58B         3.5470    -6.0900    -1.1470 hc         1 NIL       0.044367
     46 H52          7.2010    -2.2300    -1.4860 h5         1 NIL       0.058100
     47 H6           6.8530    -0.7750     0.3810 ha         1 NIL       0.162000
     48 H12          4.0780     2.4920     0.6490 ha         1 NIL       0.150000
     49 H25          0.8910     3.4260    -1.4840 ha         1 NIL       0.134000
     50 H23         -1.0710     4.8710    -1.6020 ha         1 NIL       0.136000
     51 H27         -4.3750     3.9790    -1.8890 hc         1 NIL       0.047700
     52 H27A        -4.1740     4.3730    -0.1830 hc         1 NIL       0.047700
     53 H27B        -3.3210     5.2990    -1.4060 hc         1 NIL       0.047700
     54 H19         -1.6420     0.1370    -0.3890 ha         1 NIL       0.191000
     55 HN31        -4.6460     2.2930    -0.4670 hn         1 NIL       0.457800
     56 H38         -3.6200    -2.7310     0.2790 h4         1 NIL       0.030100
     57 H36         -6.0490    -2.9140     0.7350 ha         1 NIL       0.158000
     58 H49         -8.0930     1.1670    -0.3010 ha         1 NIL       0.155000
     59 H47        -10.5450     1.1770     0.1530 ha         1 NIL       0.146000
     60 H45        -11.5340    -0.7260     1.4000 h4         1 NIL       0.022100
     61 H42         -7.9040    -2.5860     1.7640 h4         1 NIL       0.021100
@<TRIPOS>BOND
     1     1     2 2   
     2     2     3 1   
     3     2    20 1   
     4     3     4 1   
     5     3    40 1   
     6     4     5 ar  
     7     4    14 ar  
     8     5     6 ar  
     9     5    41 1   
    10     6     7 1   
    11     6    13 ar  
    12     7     8 1   
    13     7    12 1   
    14     8     9 2   
    15     8    42 1   
    16     9    10 1   
    17     9    11 1   
    18    10    43 1   
    19    10    44 1   
    20    10    45 1   
    21    11    12 2   
    22    12    46 1   
    23    13    15 ar  
    24    13    47 1   
    25    14    15 ar  
    26    14    48 1   
    27    15    16 1   
    28    16    17 1   
    29    16    18 1   
    30    16    19 1   
    31    20    21 ar  
    32    20    26 ar  
    33    21    22 ar  
    34    21    49 1   
    35    22    23 ar  
    36    22    50 1   
    37    23    24 1   
    38    23    25 ar  
    39    24    51 1   
    40    24    52 1   
    41    24    53 1   
    42    25    26 ar  
    43    25    27 1   
    44    26    54 1   
    45    27    28 1   
    46    27    55 1   
    47    28    29 ar  
    48    28    33 ar  
    49    29    30 ar  
    50    30    31 ar  
    51    30    56 1   
    52    31    32 ar  
    53    31    57 1   
    54    32    33 ar  
    55    32    34 1   
    56    34    35 ar  
    57    34    39 ar  
    58    35    36 ar  
    59    35    58 1   
    60    36    37 ar  
    61    36    59 1   
    62    37    38 ar  
    63    37    60 1   
    64    38    39 ar  
    65    39    61 1   
@<TRIPOS>SUBSTRUCTURE
     1 NIL         1 TEMP              0 ****  ****    0 ROOT
