@<TRIPOS>MOLECULE
NIM
   33    34     1     0     0
SMALL
No Charge or Current Charge


@<TRIPOS>ATOM
      1 O4          -1.2660     4.9710     0.5590 o          1 NIM      -0.393000
      2 N2          -1.6960     3.8730     0.1800 no         1 NIM       0.693200
      3 O3          -2.8980     3.6290     0.0140 o          1 NIM      -0.393000
      4 C5          -0.7050     2.7760    -0.0880 ca         1 NIM      -0.145200
      5 C4           0.6810     3.0000     0.0900 ca         1 NIM      -0.065000
      6 C3           1.6080     1.9730    -0.1640 ca         1 NIM      -0.066000
      7 C2           1.1760     0.7050    -0.5930 ca         1 NIM       0.252000
      8 N1           2.0890    -0.3240    -0.8430 nu         1 NIM      -0.873100
      9 S1           3.1180    -0.9890     0.2720 s6         1 NIM       1.193100
     10 O1           3.6500    -2.1900    -0.3710 o          1 NIM      -0.522500
     11 O2           4.0110     0.0830     0.7150 o          1 NIM      -0.522500
     12 C1           2.0610    -1.4760     1.6180 c3         1 NIM      -0.377100
     13 C6          -1.1390     1.5020    -0.5270 ca         1 NIM      -0.119000
     14 C7          -0.2070     0.4770    -0.7740 ca         1 NIM       0.101100
     15 O5          -0.6440    -0.7630    -1.1960 os         1 NIM      -0.267200
     16 C8          -1.6320    -1.4640    -0.5420 ca         1 NIM       0.075100
     17 C13         -2.4380    -2.3450    -1.2830 ca         1 NIM      -0.110500
     18 C12         -3.4470    -3.0860    -0.6420 ca         1 NIM      -0.096000
     19 C11         -3.6450    -2.9510     0.7430 ca         1 NIM      -0.097000
     20 C10         -2.8330    -2.0790     1.4890 ca         1 NIM      -0.096000
     21 C9          -1.8240    -1.3370     0.8490 ca         1 NIM      -0.110500
     22 H4           1.0510     3.9700     0.4210 ha         1 NIM       0.162000
     23 H3           2.6680     2.1710    -0.0370 ha         1 NIM       0.159000
     24 HN1          1.6780    -1.1440    -1.2720 hn         1 NIM       0.506000
     25 H11A         1.5860    -0.5720     2.0120 h1         1 NIM       0.105033
     26 H12A         1.3180    -2.1780     1.2240 h1         1 NIM       0.105033
     27 H13A         2.6930    -1.9510     2.3740 h1         1 NIM       0.105033
     28 H6          -2.1970     1.2990    -0.6810 ha         1 NIM       0.167000
     29 H13         -2.2820    -2.4510    -2.3540 ha         1 NIM       0.129500
     30 H12         -4.0730    -3.7650    -1.2180 ha         1 NIM       0.124000
     31 H11         -4.4250    -3.5250     1.2390 ha         1 NIM       0.123000
     32 H10         -2.9830    -1.9800     2.5620 ha         1 NIM       0.124000
     33 H9          -1.1950    -0.6740     1.4370 ha         1 NIM       0.129500
@<TRIPOS>BOND
     1     1     2 1   
     2     2     3 1   
     3     2     4 1   
     4     4     5 ar  
     5     4    13 ar  
     6     5     6 ar  
     7     5    22 1   
     8     6     7 ar  
     9     6    23 1   
    10     7     8 1   
    11     7    14 ar  
    12     8     9 1   
    13     8    24 1   
    14     9    10 2   
    15     9    11 2   
    16     9    12 1   
    17    12    25 1   
    18    12    26 1   
    19    12    27 1   
    20    13    14 ar  
    21    13    28 1   
    22    14    15 1   
    23    15    16 1   
    24    16    17 ar  
    25    16    21 ar  
    26    17    18 ar  
    27    17    29 1   
    28    18    19 ar  
    29    18    30 1   
    30    19    20 ar  
    31    19    31 1   
    32    20    21 ar  
    33    20    32 1   
    34    21    33 1   
@<TRIPOS>SUBSTRUCTURE
     1 NIM         1 TEMP              0 ****  ****    0 ROOT
