@<TRIPOS>MOLECULE
NIM
   33    34     1     0     0
SMALL
bcc


@<TRIPOS>ATOM
      1 O4          -1.4400     4.6650     0.0440 o          1 NIM      -0.203000
      2 N2          -1.7620     3.5010     0.0510 no         1 NIM       0.313200
      3 O3          -2.8900     3.1130     0.2390 o          1 NIM      -0.203000
      4 C5          -0.7240     2.5050    -0.1790 ca         1 NIM      -0.145200
      5 C4           0.5710     2.9250    -0.4240 ca         1 NIM      -0.083000
      6 C3           1.5410     1.9640    -0.6480 ca         1 NIM      -0.084000
      7 C2           1.2290     0.6130    -0.6090 ca         1 NIM       0.113600
      8 N1           2.2270    -0.3520    -0.8360 nu         1 NIM      -0.679500
      9 S1           3.3470    -0.6700     0.3610 s6         1 NIM       1.223900
     10 O1           4.2700    -1.6330    -0.2110 o          1 NIM      -0.593300
     11 O2           3.8340     0.6120     0.8360 o          1 NIM      -0.593300
     12 C1           2.4450    -1.4510     1.6780 c3         1 NIM      -0.266300
     13 C6          -1.0790     1.1640    -0.1470 ca         1 NIM      -0.137000
     14 C7          -0.0930     0.2160    -0.3550 ca         1 NIM       0.101100
     15 O5          -0.3090    -1.1170    -0.3280 os         1 NIM      -0.267200
     16 C8          -1.5790    -1.5900    -0.0690 ca         1 NIM       0.075100
     17 C13         -2.4450    -1.8170    -1.1270 ca         1 NIM      -0.128500
     18 C12         -3.7070    -2.3320    -0.8630 ca         1 NIM      -0.114000
     19 C11         -4.0930    -2.6070     0.4430 ca         1 NIM      -0.115000
     20 C10         -3.2110    -2.3720     1.4900 ca         1 NIM      -0.114000
     21 C9          -1.9460    -1.8580     1.2400 ca         1 NIM      -0.128500
     22 H4           0.8310     3.9720    -0.4620 ha         1 NIM       0.180000
     23 H3           2.5530     2.2660    -0.8730 ha         1 NIM       0.177000
     24 HN1          1.9190    -1.2000    -1.3040 hn         1 NIM       0.450800
     25 H11A         1.6690    -0.7780     2.0370 h1         1 NIM       0.105033
     26 H12A         2.0100    -2.3780     1.3150 h1         1 NIM       0.105033
     27 H13A         3.1490    -1.6570     2.4830 h1         1 NIM       0.105033
     28 H6          -2.0990     0.8680     0.0530 ha         1 NIM       0.185000
     29 H13         -2.1350    -1.6010    -2.1410 ha         1 NIM       0.147500
     30 H12         -4.3890    -2.5160    -1.6820 ha         1 NIM       0.142000
     31 H11         -5.0760    -3.0090     0.6440 ha         1 NIM       0.141000
     32 H10         -3.5070    -2.5870     2.5080 ha         1 NIM       0.142000
     33 H9          -1.2530    -1.6760     2.0510 ha         1 NIM       0.147500
@<TRIPOS>BOND
     1     1     2 1   
     2     2     3 1   
     3     2     4 1   
     4     4     5 ar  
     5     4    13 ar  
     6     5     6 ar  
     7     5    22 1   
     8     6     7 ar  
     9     6    23 1   
    10     7     8 1   
    11     7    14 ar  
    12     8     9 1   
    13     8    24 1   
    14     9    10 2   
    15     9    11 2   
    16     9    12 1   
    17    12    25 1   
    18    12    26 1   
    19    12    27 1   
    20    13    14 ar  
    21    13    28 1   
    22    14    15 1   
    23    15    16 1   
    24    16    17 ar  
    25    16    21 ar  
    26    17    18 ar  
    27    17    29 1   
    28    18    19 ar  
    29    18    30 1   
    30    19    20 ar  
    31    19    31 1   
    32    20    21 ar  
    33    20    32 1   
    34    21    33 1   
@<TRIPOS>SUBSTRUCTURE
     1 NIM         1 TEMP              0 ****  ****    0 ROOT
