@<TRIPOS>MOLECULE
NIN
   16    16     1     0     0
SMALL
abcg2


@<TRIPOS>ATOM
      1 C1           1.1920     1.5620     0.0490 ca         1 NIN      -0.008000
      2 C2           1.1690     0.1750     0.0310 ca         1 NIN      -0.190200
      3 N2           2.4300    -0.5590     0.0300 no         1 NIN       0.696200
      4 O21          3.4520     0.0820     0.0410 o          1 NIN      -0.383750
      5 O22          2.3810    -1.7640     0.0200 o          1 NIN      -0.383750
      6 C3          -0.0130    -0.5410     0.0140 ca         1 NIN       0.012000
      7 C4          -1.1940     0.1780     0.0140 ca         1 NIN      -0.190200
      8 N4          -2.4560    -0.5530    -0.0060 no         1 NIN       0.696200
      9 O41         -2.4090    -1.7590    -0.0120 o          1 NIN      -0.383750
     10 O42         -3.4760     0.0900    -0.0130 o          1 NIN      -0.383750
     11 C5          -1.2140     1.5650     0.0310 ca         1 NIN      -0.008000
     12 C6          -0.0100     2.2490     0.0490 ca         1 NIN      -0.129000
     13 H1           2.1240     2.1070     0.0630 ha         1 NIN       0.162000
     14 H2          -0.0140    -1.6210     0.0000 ha         1 NIN       0.188000
     15 H3          -2.1450     2.1120     0.0300 ha         1 NIN       0.162000
     16 H4          -0.0090     3.3290     0.0630 ha         1 NIN       0.143000
@<TRIPOS>BOND
     1     1     2 ar  
     2     1    12 ar  
     3     1    13 1   
     4     2     3 1   
     5     2     6 ar  
     6     3     4 1   
     7     3     5 1   
     8     6     7 ar  
     9     6    14 1   
    10     7     8 1   
    11     7    11 ar  
    12     8     9 1   
    13     8    10 1   
    14    11    12 ar  
    15    11    15 1   
    16    12    16 1   
@<TRIPOS>SUBSTRUCTURE
     1 NIN         1 TEMP              0 ****  ****    0 ROOT
