@<TRIPOS>MOLECULE
NIN
   16    16     1     0     0
SMALL
No Charge or Current Charge


@<TRIPOS>ATOM
      1 C1           1.2080     1.5800     0.0480 ca         1 NIN      -0.008000
      2 C2           1.2170     0.1670     0.0310 ca         1 NIN      -0.190200
      3 N2           2.5150    -0.5810     0.0320 no         1 NIN       0.696200
      4 O21          3.5660     0.0720     0.0480 o          1 NIN      -0.383750
      5 O22          2.4780    -1.8180     0.0170 o          1 NIN      -0.383750
      6 C3          -0.0130    -0.5340     0.0140 ca         1 NIN       0.012000
      7 C4          -1.2420     0.1700     0.0130 ca         1 NIN      -0.190200
      8 N4          -2.5410    -0.5750    -0.0060 no         1 NIN       0.696200
      9 O41         -2.5060    -1.8120    -0.0200 o          1 NIN      -0.383750
     10 O42         -3.5910     0.0800    -0.0060 o          1 NIN      -0.383750
     11 C5          -1.2300     1.5830     0.0300 ca         1 NIN      -0.008000
     12 C6          -0.0100     2.2780     0.0480 ca         1 NIN      -0.129000
     13 H1           2.1390     2.1470     0.0620 ha         1 NIN       0.162000
     14 H2          -0.0140    -1.6240     0.0010 ha         1 NIN       0.188000
     15 H3          -2.1590     2.1520     0.0300 ha         1 NIN       0.162000
     16 H4          -0.0090     3.3660     0.0610 ha         1 NIN       0.143000
@<TRIPOS>BOND
     1     1     2 ar  
     2     1    12 ar  
     3     1    13 1   
     4     2     3 1   
     5     2     6 ar  
     6     3     4 1   
     7     3     5 1   
     8     6     7 ar  
     9     6    14 1   
    10     7     8 1   
    11     7    11 ar  
    12     8     9 1   
    13     8    10 1   
    14    11    12 ar  
    15    11    15 1   
    16    12    16 1   
@<TRIPOS>SUBSTRUCTURE
     1 NIN         1 TEMP              0 ****  ****    0 ROOT
