@<TRIPOS>MOLECULE
NIO
   13    13     1     0     0
SMALL
No Charge or Current Charge


@<TRIPOS>ATOM
      1 N            1.2300    -0.0270    -1.8480 nb         1 NIO      -0.711000
      2 C1           1.1600    -0.0250    -0.4930 ca         1 NIO       0.341900
      3 C2          -0.0550    -0.0150     0.2190 ca         1 NIO      -0.180600
      4 C3          -1.2600    -0.0070    -0.5180 ca         1 NIO      -0.061000
      5 C4          -1.1870    -0.0090    -1.9200 ca         1 NIO      -0.200000
      6 C5           0.0720    -0.0180    -2.5420 ca         1 NIO       0.294900
      7 C6          -0.0420    -0.0140     1.7230 c          1 NIO       0.718600
      8 O1          -1.1130    -0.0060     2.3140 o          1 NIO      -0.718500
      9 O2           1.0350    -0.0220     2.2990 o          1 NIO      -0.718500
     10 H1           2.1190    -0.0320     0.0250 h4         1 NIO       0.030100
     11 H3          -2.2280     0.0010    -0.0190 ha         1 NIO       0.128000
     12 H4          -2.0910    -0.0020    -2.5210 ha         1 NIO       0.092000
     13 H5           0.1560    -0.0200    -3.6270 h4         1 NIO      -0.016900
@<TRIPOS>BOND
     1     1     2 ar  
     2     1     6 ar  
     3     2     3 ar  
     4     2    10 1   
     5     3     4 ar  
     6     3     7 1   
     7     4     5 ar  
     8     4    11 1   
     9     5     6 ar  
    10     5    12 1   
    11     6    13 1   
    12     7     8 1   
    13     7     9 1   
@<TRIPOS>SUBSTRUCTURE
     1 NIO         1 TEMP              0 ****  ****    0 ROOT
