@<TRIPOS>MOLECULE
NIO
   13    13     1     0     0
SMALL
abcg2


@<TRIPOS>ATOM
      1 N            1.2120    -0.0270    -1.8420 nb         1 NIO      -0.711000
      2 C1           1.1430    -0.0250    -0.5150 ca         1 NIO       0.341900
      3 C2          -0.0470    -0.0150     0.2070 ca         1 NIO      -0.180600
      4 C3          -1.2300    -0.0070    -0.5230 ca         1 NIO      -0.061000
      5 C4          -1.1750    -0.0090    -1.9080 ca         1 NIO      -0.200000
      6 C5           0.0690    -0.0180    -2.5200 ca         1 NIO       0.294900
      7 C6          -0.0500    -0.0140     1.7300 c          1 NIO       0.718600
      8 O1          -1.1670    -0.0070     2.2790 o          1 NIO      -0.718500
      9 O2           1.0640    -0.0200     2.2860 o          1 NIO      -0.718500
     10 H1           2.0890    -0.0320     0.0160 h4         1 NIO       0.030100
     11 H3          -2.1820     0.0010    -0.0090 ha         1 NIO       0.128000
     12 H4          -2.0760    -0.0020    -2.5080 ha         1 NIO       0.092000
     13 H5           0.1470    -0.0200    -3.6020 h4         1 NIO      -0.016900
@<TRIPOS>BOND
     1     1     2 ar  
     2     1     6 ar  
     3     2     3 ar  
     4     2    10 1   
     5     3     4 ar  
     6     3     7 1   
     7     4     5 ar  
     8     4    11 1   
     9     5     6 ar  
    10     5    12 1   
    11     6    13 1   
    12     7     8 1   
    13     7     9 1   
@<TRIPOS>SUBSTRUCTURE
     1 NIO         1 TEMP              0 ****  ****    0 ROOT
