@<TRIPOS>MOLECULE
NIP
   39    39     1     0     0
SMALL
abcg2


@<TRIPOS>ATOM
      1 C1           6.0360     3.6740     5.9120 ca         1 NIP      -0.132300
      2 C2           7.3840     3.8120     6.1860 ca         1 NIP       0.015000
      3 C3           7.8490     4.9170     6.8810 ca         1 NIP      -0.224200
      4 N3           9.2800     4.9990     7.1150 no         1 NIP       0.705200
      5 O3A          9.8700     3.9610     7.3110 o          1 NIP      -0.397000
      6 O3B          9.8070     6.0830     7.0770 o          1 NIP      -0.397000
      7 C4           6.9960     5.9270     7.3480 ca         1 NIP       0.245100
      8 O4           7.5050     6.9340     8.0450 oh         1 NIP      -0.493100
      9 C5           5.6350     5.7620     7.0630 ca         1 NIP       0.075000
     10 I5           4.2480     7.2070     7.7010 i          1 NIP      -0.250000
     11 C6           5.1690     4.6660     6.3590 ca         1 NIP       0.009000
     12 C7           5.5200     2.5270     5.0880 c3         1 NIP      -0.110100
     13 C8           5.5220     2.9460     3.6260 c          1 NIP       0.598100
     14 O8           6.5700     3.0960     3.0140 o          1 NIP      -0.600100
     15 N9           4.3130     3.1720     3.0960 ns         1 NIP      -0.497900
     16 C10          4.1140     3.7400     1.7770 c3         1 NIP       0.105000
     17 C11          4.3220     5.2510     1.7270 c3         1 NIP      -0.103400
     18 C12          3.4290     6.0250     2.6890 c3         1 NIP      -0.077400
     19 C13          3.5700     7.5360     2.5490 c3         1 NIP      -0.055400
     20 C14          2.7100     8.2970     3.5450 c3         1 NIP      -0.205400
     21 C15          2.7690     9.8320     3.4620 c          1 NIP       0.717000
     22 O15          3.4340    10.3430     2.5390 o          1 NIP      -0.741500
     23 O16          2.1270    10.4520     4.3370 o          1 NIP      -0.741500
     24 H2           8.0830     3.0580     5.8490 ha         1 NIP       0.153000
     25 HO4          6.8190     7.5050     8.4160 ho         1 NIP       0.495000
     26 H6           4.1100     4.5720     6.1540 ha         1 NIP       0.134000
     27 H71          6.1690     1.6580     5.1990 hc         1 NIP       0.064200
     28 H72          4.5230     2.2400     5.4260 hc         1 NIP       0.064200
     29 HN9          3.5030     3.0540     3.6810 hn         1 NIP       0.308500
     30 H101         3.0950     3.4950     1.4760 h1         1 NIP       0.043700
     31 H102         4.7820     3.2440     1.0710 h1         1 NIP       0.043700
     32 H111         4.1250     5.5760     0.7010 hc         1 NIP       0.053200
     33 H112         5.3720     5.4830     1.9280 hc         1 NIP       0.053200
     34 H121         2.3840     5.7380     2.5270 hc         1 NIP       0.017200
     35 H122         3.6660     5.7370     3.7190 hc         1 NIP       0.017200
     36 H131         4.6200     7.8140     2.6790 hc         1 NIP       0.042200
     37 H132         3.3060     7.8300     1.5290 hc         1 NIP       0.042200
     38 H141         2.9790     7.9990     4.5650 hc         1 NIP       0.012700
     39 H142         1.6620     7.9930     3.4310 hc         1 NIP       0.012700
@<TRIPOS>BOND
     1     1     2 ar  
     2     1    11 ar  
     3     1    12 1   
     4     2     3 ar  
     5     2    24 1   
     6     3     4 1   
     7     3     7 ar  
     8     4     5 1   
     9     4     6 1   
    10     7     8 1   
    11     7     9 ar  
    12     8    25 1   
    13     9    10 1   
    14     9    11 ar  
    15    11    26 1   
    16    12    13 1   
    17    12    27 1   
    18    12    28 1   
    19    13    14 2   
    20    13    15 1   
    21    15    16 1   
    22    15    29 1   
    23    16    17 1   
    24    16    30 1   
    25    16    31 1   
    26    17    18 1   
    27    17    32 1   
    28    17    33 1   
    29    18    19 1   
    30    18    34 1   
    31    18    35 1   
    32    19    20 1   
    33    19    36 1   
    34    19    37 1   
    35    20    21 1   
    36    20    38 1   
    37    20    39 1   
    38    21    22 1   
    39    21    23 1   
@<TRIPOS>SUBSTRUCTURE
     1 NIP         1 TEMP              0 ****  ****    0 ROOT
