@<TRIPOS>MOLECULE
NIP
   39    39     1     0     0
SMALL
No Charge or Current Charge


@<TRIPOS>ATOM
      1 C1           6.0270     3.6720     5.8280 ca         1 NIP      -0.132300
      2 C2           7.3650     3.9940     6.1320 ca         1 NIP       0.015000
      3 C3           7.6690     5.1340     6.9070 ca         1 NIP      -0.224200
      4 N3           9.0870     5.4490     7.2060 no         1 NIP       0.705200
      5 O3A          9.8390     4.4970     7.4530 o          1 NIP      -0.397000
      6 O3B          9.4890     6.5970     6.9770 o          1 NIP      -0.397000
      7 C4           6.6250     5.9510     7.3900 ca         1 NIP       0.245100
      8 O4           6.8920     7.0360     8.1810 oh         1 NIP      -0.493100
      9 C5           5.2870     5.6290     7.0800 ca         1 NIP       0.075000
     10 I5           3.6560     6.8680     7.8060 i          1 NIP      -0.250000
     11 C6           4.9910     4.4980     6.3040 ca         1 NIP       0.009000
     12 C7           5.7030     2.4550     4.9620 c3         1 NIP      -0.110100
     13 C8           5.5730     2.8720     3.4920 c          1 NIP       0.598100
     14 O8           6.5450     3.0550     2.7720 o          1 NIP      -0.600100
     15 N9           4.2810     3.0610     3.0560 ns         1 NIP      -0.497900
     16 C10          3.9110     3.6270     1.7570 c3         1 NIP       0.105000
     17 C11          4.1950     5.1440     1.6640 c3         1 NIP      -0.103400
     18 C12          3.4960     5.9850     2.7590 c3         1 NIP      -0.077400
     19 C13          3.7660     7.5000     2.6220 c3         1 NIP      -0.055400
     20 C14          3.0910     8.3400     3.7330 c3         1 NIP      -0.205400
     21 C15          3.3890     9.8360     3.5250 c          1 NIP       0.717000
     22 O15          2.6280    10.4840     2.8230 o          1 NIP      -0.741500
     23 O16          4.4000    10.2990     4.0330 o          1 NIP      -0.741500
     24 H2           8.1670     3.3620     5.7530 ha         1 NIP       0.153000
     25 HO4          6.0370     7.4640     8.4040 ho         1 NIP       0.495000
     26 H6           3.9540     4.2680     6.0740 ha         1 NIP       0.134000
     27 H71          6.5040     1.7110     5.0490 hc         1 NIP       0.064200
     28 H72          4.7600     2.0150     5.3070 hc         1 NIP       0.064200
     29 HN9          3.5430     2.8780     3.7240 hn         1 NIP       0.308500
     30 H101         2.8400     3.4490     1.5950 h1         1 NIP       0.043700
     31 H102         4.4620     3.1000     0.9670 h1         1 NIP       0.043700
     32 H111         3.8730     5.4970     0.6770 hc         1 NIP       0.053200
     33 H112         5.2780     5.3110     1.7170 hc         1 NIP       0.053200
     34 H121         2.4150     5.8050     2.7160 hc         1 NIP       0.017200
     35 H122         3.8380     5.6560     3.7470 hc         1 NIP       0.017200
     36 H131         4.8490     7.6770     2.6450 hc         1 NIP       0.042200
     37 H132         3.4090     7.8420     1.6420 hc         1 NIP       0.042200
     38 H141         3.5260     7.9900     4.6770 hc         1 NIP       0.012700
     39 H142         2.0150     8.1470     3.6450 hc         1 NIP       0.012700
@<TRIPOS>BOND
     1     1     2 ar  
     2     1    11 ar  
     3     1    12 1   
     4     2     3 ar  
     5     2    24 1   
     6     3     4 1   
     7     3     7 ar  
     8     4     5 1   
     9     4     6 1   
    10     7     8 1   
    11     7     9 ar  
    12     8    25 1   
    13     9    10 1   
    14     9    11 ar  
    15    11    26 1   
    16    12    13 1   
    17    12    27 1   
    18    12    28 1   
    19    13    14 2   
    20    13    15 1   
    21    15    16 1   
    22    15    29 1   
    23    16    17 1   
    24    16    30 1   
    25    16    31 1   
    26    17    18 1   
    27    17    32 1   
    28    17    33 1   
    29    18    19 1   
    30    18    34 1   
    31    18    35 1   
    32    19    20 1   
    33    19    36 1   
    34    19    37 1   
    35    20    21 1   
    36    20    38 1   
    37    20    39 1   
    38    21    22 1   
    39    21    23 1   
@<TRIPOS>SUBSTRUCTURE
     1 NIP         1 TEMP              0 ****  ****    0 ROOT
