@<TRIPOS>MOLECULE
NIQ
   41    42     1     0     0
SMALL
abcg2


@<TRIPOS>ATOM
      1 NAM          1.8380    -0.3270    -1.4450 nu         1 NIQ      -0.743200
      2 CAL          0.6960     0.4880    -1.2760 cc         1 NIQ      -0.255200
      3 CAH         -0.5360    -0.1370    -1.1920 cd         1 NIQ       0.384600
      4 NAI         -0.6210    -1.4640    -1.3280 nv         1 NIQ      -0.983000
      5 CAK          0.7720     1.9030    -1.2120 c          1 NIQ       0.594200
      6 OAQ          1.7840     2.5850    -1.3320 o          1 NIQ      -0.560000
      7 NAJ         -0.4520     2.5370    -1.0050 ns         1 NIQ      -0.465500
      8 CAF         -1.6690     1.9540    -0.8400 c          1 NIQ       0.624000
      9 OAE         -2.6720     2.6030    -0.6020 o          1 NIQ      -0.566000
     10 NAG         -1.6910     0.5790    -0.9730 n          1 NIQ      -0.334000
     11 CAD         -2.9810    -0.0930    -0.8130 c3         1 NIQ       0.092000
     12 CAC         -3.1980    -0.6280     0.5970 c3         1 NIQ      -0.102400
     13 CAB         -4.5540    -1.3080     0.7360 c3         1 NIQ      -0.074400
     14 CAA         -4.7920    -1.8510     2.1380 c3         1 NIQ      -0.089100
     15 CAO          3.5250    -1.8500    -0.4480 c5         1 NIQ      -0.092400
     16 CAP          4.3080    -1.9130     0.8650 c5         1 NIQ      -0.078400
     17 CAS          4.2490    -0.4810     1.4560 c5         1 NIQ      -0.078400
     18 CAR          3.3560     0.3310     0.5070 c5         1 NIQ      -0.092400
     19 CAN          2.5180    -0.7260    -0.2210 c5         1 NIQ       0.171500
     20 HAN          1.7450    -1.0910     0.4660 h1         1 NIQ       0.046700
     21 HAI1         0.2380    -1.9530    -1.5240 hn         1 NIQ       0.513000
     22 HAI2        -1.4460    -2.0050    -1.1540 hn         1 NIQ       0.513000
     23 HAJ         -0.4370     3.5460    -0.9370 hn         1 NIQ       0.344500
     24 HAD1        -3.7550     0.6270    -1.0620 h1         1 NIQ       0.069700
     25 HAD2        -3.0600    -0.8830    -1.5610 h1         1 NIQ       0.069700
     26 HAC1        -2.4050    -1.3340     0.8600 hc         1 NIQ       0.052200
     27 HAC2        -3.1260     0.2010     1.3070 hc         1 NIQ       0.052200
     28 HAB1        -5.3430    -0.5940     0.4820 hc         1 NIQ       0.040700
     29 HAB2        -4.6330    -2.1220     0.0090 hc         1 NIQ       0.040700
     30 HAA1        -5.7760    -2.3130     2.2220 hc         1 NIQ       0.036367
     31 HAA2        -4.0490    -2.6060     2.4020 hc         1 NIQ       0.036367
     32 HAA3        -4.7340    -1.0560     2.8830 hc         1 NIQ       0.036367
     33 HAO1         4.1880    -1.5780    -1.2770 hc         1 NIQ       0.048950
     34 HAO2         3.0470    -2.7950    -0.7110 hc         1 NIQ       0.048950
     35 HAP1         3.8360    -2.6220     1.5480 hc         1 NIQ       0.040200
     36 HAP2         5.3320    -2.2570     0.7140 hc         1 NIQ       0.040200
     37 HAS1         3.8270    -0.5040     2.4620 hc         1 NIQ       0.040200
     38 HAS2         5.2410    -0.0380     1.5490 hc         1 NIQ       0.040200
     39 HAR1         2.7480     1.0710     1.0280 hc         1 NIQ       0.048950
     40 HAR2         3.9600     0.8690    -0.2290 hc         1 NIQ       0.048950
     41 HNAM         2.4900     0.0870    -2.0990 hn         1 NIQ       0.442000
@<TRIPOS>BOND
     1     1     2 1   
     2     1    19 1   
     3     1    41 1   
     4     2     3 2   
     5     2     5 1   
     6     3     4 1   
     7     3    10 1   
     8     4    21 1   
     9     4    22 1   
    10     5     6 2   
    11     5     7 1   
    12     7     8 1   
    13     7    23 1   
    14     8     9 2   
    15     8    10 1   
    16    10    11 1   
    17    11    12 1   
    18    11    24 1   
    19    11    25 1   
    20    12    13 1   
    21    12    26 1   
    22    12    27 1   
    23    13    14 1   
    24    13    28 1   
    25    13    29 1   
    26    14    30 1   
    27    14    31 1   
    28    14    32 1   
    29    15    16 1   
    30    15    19 1   
    31    15    33 1   
    32    15    34 1   
    33    16    17 1   
    34    16    35 1   
    35    16    36 1   
    36    17    18 1   
    37    17    37 1   
    38    17    38 1   
    39    18    19 1   
    40    18    39 1   
    41    18    40 1   
    42    19    20 1   
@<TRIPOS>SUBSTRUCTURE
     1 NIQ         1 TEMP              0 ****  ****    0 ROOT
