@<TRIPOS>MOLECULE
NIQ
   41    42     1     0     0
SMALL
No Charge or Current Charge


@<TRIPOS>ATOM
      1 NAM          2.0610     0.3150    -1.0310 nu         1 NIQ      -0.743200
      2 CAL          0.7210     0.7710    -1.0970 cc         1 NIQ      -0.255200
      3 CAH         -0.4180    -0.0120    -0.9780 cd         1 NIQ       0.384600
      4 NAI         -0.2940    -1.3580    -0.8670 nv         1 NIQ      -0.983000
      5 CAK          0.5410     2.2310    -1.3360 c          1 NIQ       0.594200
      6 OAQ          1.4600     3.0210    -1.4920 o          1 NIQ      -0.560000
      7 NAJ         -0.7440     2.6480    -1.3640 ns         1 NIQ      -0.465500
      8 CAF         -1.8690     1.9150    -1.2120 c          1 NIQ       0.624000
      9 OAE         -2.9590     2.4620    -1.2490 o          1 NIQ      -0.566000
     10 NAG         -1.6980     0.5320    -1.0170 n          1 NIQ      -0.334000
     11 CAD         -2.9250    -0.3080    -0.8930 c3         1 NIQ       0.092000
     12 CAC         -3.3200    -0.5840     0.5740 c3         1 NIQ      -0.102400
     13 CAB         -4.5780    -1.4700     0.7020 c3         1 NIQ      -0.074400
     14 CAA         -4.9780    -1.7420     2.1650 c3         1 NIQ      -0.089100
     15 CAO          3.2810    -1.7310    -0.6260 c5         1 NIQ      -0.092400
     16 CAP          4.1970    -2.2360     0.5280 c5         1 NIQ      -0.078400
     17 CAS          4.4750    -0.9690     1.4090 c5         1 NIQ      -0.078400
     18 CAR          3.7580     0.1940     0.6660 c5         1 NIQ      -0.092400
     19 CAN          2.5480    -0.5570     0.0660 c5         1 NIQ       0.171500
     20 HAN          1.8010    -0.8580     0.8160 h1         1 NIQ       0.046700
     21 HAI1         0.6610    -1.6920    -0.8030 hn         1 NIQ       0.513000
     22 HAI2        -0.9980    -1.8870    -0.3690 hn         1 NIQ       0.513000
     23 HAJ         -0.8820     3.6340    -1.5120 hn         1 NIQ       0.344500
     24 HAD1        -3.7670     0.1810    -1.4000 h1         1 NIQ       0.069700
     25 HAD2        -2.7780    -1.2590    -1.4220 h1         1 NIQ       0.069700
     26 HAC1        -2.4850    -1.0640     1.0970 hc         1 NIQ       0.052200
     27 HAC2        -3.5010     0.3740     1.0780 hc         1 NIQ       0.052200
     28 HAB1        -5.4180    -0.9870     0.1870 hc         1 NIQ       0.040700
     29 HAB2        -4.4020    -2.4280     0.1960 hc         1 NIQ       0.040700
     30 HAA1        -5.8740    -2.3730     2.2060 hc         1 NIQ       0.036367
     31 HAA2        -4.1710    -2.2580     2.6990 hc         1 NIQ       0.036367
     32 HAA3        -5.1950    -0.8040     2.6890 hc         1 NIQ       0.036367
     33 HAO1         3.8840    -1.4020    -1.4830 hc         1 NIQ       0.048950
     34 HAO2         2.6000    -2.5080    -0.9880 hc         1 NIQ       0.048950
     35 HAP1         3.6970    -3.0130     1.1180 hc         1 NIQ       0.040200
     36 HAP2         5.1220    -2.6790     0.1410 hc         1 NIQ       0.040200
     37 HAS1         4.0630    -1.1030     2.4160 hc         1 NIQ       0.040200
     38 HAS2         5.5470    -0.7750     1.5290 hc         1 NIQ       0.040200
     39 HAR1         3.4600     1.0030     1.3430 hc         1 NIQ       0.048950
     40 HAR2         4.4130     0.6290    -0.1000 hc         1 NIQ       0.048950
     41 HNAM         2.7310     1.0010    -1.3940 hn         1 NIQ       0.442000
@<TRIPOS>BOND
     1     1     2 1   
     2     1    19 1   
     3     1    41 1   
     4     2     3 2   
     5     2     5 1   
     6     3     4 1   
     7     3    10 1   
     8     4    21 1   
     9     4    22 1   
    10     5     6 2   
    11     5     7 1   
    12     7     8 1   
    13     7    23 1   
    14     8     9 2   
    15     8    10 1   
    16    10    11 1   
    17    11    12 1   
    18    11    24 1   
    19    11    25 1   
    20    12    13 1   
    21    12    26 1   
    22    12    27 1   
    23    13    14 1   
    24    13    28 1   
    25    13    29 1   
    26    14    30 1   
    27    14    31 1   
    28    14    32 1   
    29    15    16 1   
    30    15    19 1   
    31    15    33 1   
    32    15    34 1   
    33    16    17 1   
    34    16    35 1   
    35    16    36 1   
    36    17    18 1   
    37    17    37 1   
    38    17    38 1   
    39    18    19 1   
    40    18    39 1   
    41    18    40 1   
    42    19    20 1   
@<TRIPOS>SUBSTRUCTURE
     1 NIQ         1 TEMP              0 ****  ****    0 ROOT
