@<TRIPOS>MOLECULE
NIR
   35    36     1     0     0
SMALL
No Charge or Current Charge


@<TRIPOS>ATOM
      1 N1          -3.8520    -1.6780    -1.0740 nt         1 NIR      -0.611000
      2 C4          -1.4220    -0.2930     0.1680 c6         1 NIR       0.173800
      3 C5          -2.7190     0.3870    -0.3450 c6         1 NIR      -0.112500
      4 C6          -3.9130    -0.5860    -0.2790 c          1 NIR       0.604100
      5 O6          -4.8820    -0.4130     0.4430 o          1 NIR      -0.601100
      6 C8          -0.6050     1.7720     1.1970 c6         1 NIR       0.198000
      7 N9          -0.2870     0.6720     0.2410 n3         1 NIR      -0.699600
      8 C1           1.0400     0.0300     0.4880 c5         1 NIR       0.414500
      9 C2           2.2420     1.0500     0.3590 c5         1 NIR       0.148300
     10 O2           2.1810     1.9770    -0.7410 oh         1 NIR      -0.685000
     11 C3           3.4120     0.0450     0.0670 c5         1 NIR       0.094300
     12 C4N         -2.9540     1.7540     0.2950 c2         1 NIR      -0.183200
     13 O3           4.3630     0.6320    -0.8510 oh         1 NIR      -0.713000
     14 C7           2.6800    -1.2250    -0.5240 c5         1 NIR       0.144300
     15 C5N         -1.9850     2.3770     0.9820 c2         1 NIR      -0.220200
     16 O4           1.2840    -0.8700    -0.6000 os         1 NIR      -0.454000
     17 C9           2.8380    -2.4950     0.3450 c3         1 NIR      -0.099100
     18 H1N1        -3.0600    -1.8210    -1.6830 hn         1 NIR       0.313500
     19 H1N2        -4.6150    -2.3390    -1.0620 hn         1 NIR       0.313500
     20 H41         -1.1820    -1.1350    -0.4980 h1         1 NIR       0.047700
     21 H55         -2.5170     0.5170    -1.4160 hc         1 NIR       0.077700
     22 H8           0.1400     2.5770     1.1170 h1         1 NIR       0.043200
     23 H81         -0.5510     1.3960     2.2300 h1         1 NIR       0.043200
     24 H1           1.0670    -0.5050     1.4460 h2         1 NIR       0.020700
     25 H2           2.4060     1.5860     1.3040 h1         1 NIR       0.051700
     26 HB           3.0300     1.7540    -1.2060 ho         1 NIR       0.514000
     27 H3           3.9150    -0.2160     1.0090 h1         1 NIR       0.043700
     28 H4N         -3.9380     2.2100     0.1600 ha         1 NIR       0.185000
     29 HA           5.1730     0.0660    -0.8410 ho         1 NIR       0.515000
     30 H4           3.0310    -1.4550    -1.5400 h1         1 NIR       0.073700
     31 H5N         -2.1550     3.3560     1.4310 ha         1 NIR       0.179000
     32 H5'1         2.2590    -3.3270    -0.0710 hc         1 NIR       0.043367
     33 H5'2         3.8880    -2.8090     0.3830 hc         1 NIR       0.043367
     34 H5'3         2.5030    -2.3300     1.3750 hc         1 NIR       0.043367
     35 H6          -1.6120    -0.7220     1.1650 h1         1 NIR       0.047700
@<TRIPOS>BOND
     1     1     4 1   
     2     1    18 1   
     3     1    19 1   
     4     2     3 1   
     5     2     7 1   
     6     2    20 1   
     7     2    35 1   
     8     3     4 1   
     9     3    12 1   
    10     3    21 1   
    11     4     5 2   
    12     6     7 1   
    13     6    15 1   
    14     6    22 1   
    15     6    23 1   
    16     7     8 1   
    17     8     9 1   
    18     8    16 1   
    19     8    24 1   
    20     9    10 1   
    21     9    11 1   
    22     9    25 1   
    23    10    26 1   
    24    11    13 1   
    25    11    14 1   
    26    11    27 1   
    27    12    15 2   
    28    12    28 1   
    29    13    29 1   
    30    14    16 1   
    31    14    17 1   
    32    14    30 1   
    33    15    31 1   
    34    17    32 1   
    35    17    33 1   
    36    17    34 1   
@<TRIPOS>SUBSTRUCTURE
     1 NIR         1 TEMP              0 ****  ****    0 ROOT
