@<TRIPOS>MOLECULE
NIR
   35    36     1     0     0
SMALL
abcg2


@<TRIPOS>ATOM
      1 N1          -4.0000    -1.6540    -0.8300 nt         1 NIR      -0.611000
      2 C4          -1.4130    -0.2690     0.3160 c6         1 NIR       0.173800
      3 C5          -2.6480     0.2960    -0.3910 c6         1 NIR      -0.112500
      4 C6          -3.8450    -0.5790    -0.0440 c          1 NIR       0.604100
      5 O6          -4.5770    -0.3290     0.9010 o          1 NIR      -0.601100
      6 C8          -0.5610     1.8880     0.9080 c6         1 NIR       0.198000
      7 N9          -0.2990     0.6580     0.1790 n3         1 NIR      -0.699600
      8 C1           0.9420     0.0650     0.6140 c5         1 NIR       0.414500
      9 C2           2.1670     0.9620     0.4540 c5         1 NIR       0.148300
     10 O2           2.0760     1.6800    -0.7500 oh         1 NIR      -0.685000
     11 C3           3.2570    -0.1020     0.3850 c5         1 NIR       0.094300
     12 C4N         -2.8780     1.7130     0.0310 c2         1 NIR      -0.183200
     13 O3           4.4460     0.4300    -0.1280 oh         1 NIR      -0.713000
     14 C7           2.5930    -1.1610    -0.5000 c5         1 NIR       0.144300
     15 C5N         -1.9310     2.4180     0.6360 c2         1 NIR      -0.220200
     16 O4           1.2140    -1.0960    -0.1470 os         1 NIR      -0.454000
     17 C9           3.1180    -2.5650    -0.3010 c3         1 NIR      -0.099100
     18 H1N1        -3.3860    -1.8350    -1.6050 hn         1 NIR       0.313500
     19 H1N2        -4.7200    -2.3320    -0.6380 hn         1 NIR       0.313500
     20 H41         -1.1450    -1.2220    -0.1350 h1         1 NIR       0.047700
     21 H55         -2.4780     0.2520    -1.4730 hc         1 NIR       0.077700
     22 H8           0.1680     2.6460     0.6170 h1         1 NIR       0.043200
     23 H81         -0.4420     1.7550     2.0000 h1         1 NIR       0.043200
     24 H1           0.8750    -0.2210     1.6830 h2         1 NIR       0.020700
     25 H2           2.2940     1.6270     1.3170 h1         1 NIR       0.051700
     26 HB           2.9190     2.1240    -0.8930 ho         1 NIR       0.514000
     27 H3           3.4060    -0.5150     1.3930 h1         1 NIR       0.043700
     28 H4N         -3.8440     2.1610    -0.1750 ha         1 NIR       0.185000
     29 HA           5.1650    -0.1850     0.0410 ho         1 NIR       0.515000
     30 H4           2.7180    -0.8710    -1.5510 h1         1 NIR       0.073700
     31 H5N         -2.1230     3.4370     0.9510 ha         1 NIR       0.179000
     32 H5'1         2.5870    -3.2830    -0.9280 hc         1 NIR       0.043367
     33 H5'2         4.1720    -2.6140    -0.5770 hc         1 NIR       0.043367
     34 H5'3         3.0250    -2.8790     0.7400 hc         1 NIR       0.043367
     35 H6          -1.6510    -0.4620     1.3760 h1         1 NIR       0.047700
@<TRIPOS>BOND
     1     1     4 1   
     2     1    18 1   
     3     1    19 1   
     4     2     3 1   
     5     2     7 1   
     6     2    20 1   
     7     2    35 1   
     8     3     4 1   
     9     3    12 1   
    10     3    21 1   
    11     4     5 2   
    12     6     7 1   
    13     6    15 1   
    14     6    22 1   
    15     6    23 1   
    16     7     8 1   
    17     8     9 1   
    18     8    16 1   
    19     8    24 1   
    20     9    10 1   
    21     9    11 1   
    22     9    25 1   
    23    10    26 1   
    24    11    13 1   
    25    11    14 1   
    26    11    27 1   
    27    12    15 2   
    28    12    28 1   
    29    13    29 1   
    30    14    16 1   
    31    14    17 1   
    32    14    30 1   
    33    15    31 1   
    34    17    32 1   
    35    17    33 1   
    36    17    34 1   
@<TRIPOS>SUBSTRUCTURE
     1 NIR         1 TEMP              0 ****  ****    0 ROOT
