@<TRIPOS>MOLECULE
NIS
   13    12     1     0     0
SMALL
No Charge or Current Charge


@<TRIPOS>ATOM
      1 C1           1.4160     1.2810     0.0700 c3         1 NIS      -0.104600
      2 C2           0.6810     0.0110    -0.4260 c3         1 NIS      -0.022700
      3 C4           1.3840    -1.2990     0.0080 c3         1 NIS      -0.104600
      4 N3          -0.7990     0.0190     0.0160 no         1 NIS       0.575000
      5 O6          -1.0450    -0.0070     1.2290 o          1 NIS      -0.400000
      6 O5          -1.6610     0.0510    -0.8710 o          1 NIS      -0.400000
      7 H11          1.4620     1.3080     1.1650 hc         1 NIS       0.060867
      8 H12          2.4430     1.3080    -0.3170 hc         1 NIS       0.060867
      9 H13          0.9010     2.1860    -0.2750 hc         1 NIS       0.060867
     10 H2           0.6440     0.0380    -1.5220 h1         1 NIS       0.092700
     11 H41          1.4290    -1.3780     1.1020 hc         1 NIS       0.060867
     12 H42          0.8460    -2.1730    -0.3780 hc         1 NIS       0.060867
     13 H43          2.4100    -1.3330    -0.3790 hc         1 NIS       0.060867
@<TRIPOS>BOND
     1     1     2 1   
     2     1     7 1   
     3     1     8 1   
     4     1     9 1   
     5     2     3 1   
     6     2     4 1   
     7     2    10 1   
     8     3    11 1   
     9     3    12 1   
    10     3    13 1   
    11     4     5 1   
    12     4     6 1   
@<TRIPOS>SUBSTRUCTURE
     1 NIS         1 TEMP              0 ****  ****    0 ROOT
