@<TRIPOS>MOLECULE
NIS
   13    12     1     0     0
SMALL
abcg2


@<TRIPOS>ATOM
      1 C1           1.3870     1.2580     0.0810 c3         1 NIS      -0.104600
      2 C2           0.6950     0.0150    -0.4480 c3         1 NIS      -0.022700
      3 C4           1.3500    -1.2750     0.0150 c3         1 NIS      -0.104600
      4 N3          -0.7410     0.0190    -0.0010 no         1 NIS       0.575000
      5 O6          -0.9570     0.0280     1.1880 o          1 NIS      -0.400000
      6 O5          -1.6020     0.0080    -0.8460 o          1 NIS      -0.400000
      7 H11          1.4600     1.2490     1.1670 hc         1 NIS       0.060867
      8 H12          2.3970     1.2850    -0.3260 hc         1 NIS       0.060867
      9 H13          0.8780     2.1690    -0.2350 hc         1 NIS       0.060867
     10 H2           0.6490     0.0430    -1.5350 h1         1 NIS       0.092700
     11 H41          1.4040    -1.3320     1.1010 hc         1 NIS       0.060867
     12 H42          0.8250    -2.1530    -0.3620 hc         1 NIS       0.060867
     13 H43          2.3650    -1.3030    -0.3770 hc         1 NIS       0.060867
@<TRIPOS>BOND
     1     1     2 1   
     2     1     7 1   
     3     1     8 1   
     4     1     9 1   
     5     2     3 1   
     6     2     4 1   
     7     2    10 1   
     8     3    11 1   
     9     3    12 1   
    10     3    13 1   
    11     4     5 1   
    12     4     6 1   
@<TRIPOS>SUBSTRUCTURE
     1 NIS         1 TEMP              0 ****  ****    0 ROOT
