@<TRIPOS>MOLECULE
NIT
   16    16     1     0     0
SMALL
No Charge or Current Charge


@<TRIPOS>ATOM
      1 N1           3.5360    -0.0320     0.0830 nv         1 NIT      -1.100000
      2 C1           2.1730    -0.0220     0.0620 ca         1 NIT       0.381000
      3 C2           1.4850     1.1950     0.0420 ca         1 NIT      -0.220500
      4 C3           0.0790     1.2140     0.0180 ca         1 NIT       0.015000
      5 C4          -0.6460     0.0000     0.0150 ca         1 NIT      -0.255200
      6 N4          -2.1410     0.0120    -0.0100 no         1 NIT       0.704200
      7 ON1         -2.7180     1.1070    -0.0270 o          1 NIT      -0.415000
      8 ON2         -2.7350    -1.0740    -0.0120 o          1 NIT      -0.415000
      9 C5           0.0600    -1.2250     0.0360 ca         1 NIT       0.015000
     10 C6           1.4650    -1.2270     0.0590 ca         1 NIT      -0.220500
     11 HN11         4.0400     0.8300    -0.1160 hn         1 NIT       0.485500
     12 HN12         4.0300    -0.9040    -0.1030 hn         1 NIT       0.485500
     13 H2           2.0330     2.1320     0.0450 ha         1 NIT       0.123500
     14 H3          -0.4350     2.1750     0.0030 ha         1 NIT       0.147000
     15 H5          -0.4690    -2.1770     0.0350 ha         1 NIT       0.147000
     16 H6           1.9990    -2.1730     0.0760 ha         1 NIT       0.123500
@<TRIPOS>BOND
     1     1     2 1   
     2     1    11 1   
     3     1    12 1   
     4     2     3 ar  
     5     2    10 ar  
     6     3     4 ar  
     7     3    13 1   
     8     4     5 ar  
     9     4    14 1   
    10     5     6 1   
    11     5     9 ar  
    12     6     7 1   
    13     6     8 1   
    14     9    10 ar  
    15     9    15 1   
    16    10    16 1   
@<TRIPOS>SUBSTRUCTURE
     1 NIT         1 TEMP              0 ****  ****    0 ROOT
