@<TRIPOS>MOLECULE
NIT
   16    16     1     0     0
SMALL
abcg2


@<TRIPOS>ATOM
      1 N1           3.5090    -0.0280     0.0800 nv         1 NIT      -1.100000
      2 C1           2.1630    -0.0170     0.0450 ca         1 NIT       0.381000
      3 C2           1.4460     1.1970     0.0390 ca         1 NIT      -0.220500
      4 C3           0.0720     1.2060     0.0230 ca         1 NIT       0.015000
      5 C4          -0.6300     0.0010     0.0200 ca         1 NIT      -0.255200
      6 N4          -2.0620     0.0100    -0.0030 no         1 NIT       0.704200
      7 ON1         -2.6370     1.0800    -0.0440 o          1 NIT      -0.415000
      8 ON2         -2.6490    -1.0540     0.0040 o          1 NIT      -0.415000
      9 C5           0.0580    -1.2130     0.0350 ca         1 NIT       0.015000
     10 C6           1.4310    -1.2230     0.0450 ca         1 NIT      -0.220500
     11 HN11         4.0250     0.8000    -0.1610 hn         1 NIT       0.485500
     12 HN12         4.0030    -0.8970    -0.0290 hn         1 NIT       0.485500
     13 H2           1.9890     2.1340     0.0550 ha         1 NIT       0.123500
     14 H3          -0.4460     2.1540     0.0190 ha         1 NIT       0.147000
     15 H5          -0.4760    -2.1520     0.0300 ha         1 NIT       0.147000
     16 H6           1.9600    -2.1670     0.0480 ha         1 NIT       0.123500
@<TRIPOS>BOND
     1     1     2 1   
     2     1    11 1   
     3     1    12 1   
     4     2     3 ar  
     5     2    10 ar  
     6     3     4 ar  
     7     3    13 1   
     8     4     5 ar  
     9     4    14 1   
    10     5     6 1   
    11     5     9 ar  
    12     6     7 1   
    13     6     8 1   
    14     9    10 ar  
    15     9    15 1   
    16    10    16 1   
@<TRIPOS>SUBSTRUCTURE
     1 NIT         1 TEMP              0 ****  ****    0 ROOT
