@<TRIPOS>MOLECULE
NIU
   44    46     1     0     0
SMALL
abcg2


@<TRIPOS>ATOM
      1 CA          -0.4020    18.2410    20.5730 cc         1 NIU      -0.298400
      2 CA2         -1.6340    17.6650    21.0090 c          1 NIU       0.683300
      3 OA2         -2.0120    16.5230    20.8700 o          1 NIU      -0.480000
      4 OA3         -2.5130    18.5050    21.6540 os         1 NIU      -0.338200
      5 CA4         -2.2470    19.7800    21.9430 cc         1 NIU       0.195900
      6 CA5         -1.0740    20.3600    21.6060 cd         1 NIU      -0.288200
      7 CA6         -0.1420    19.5560    20.8750 cd         1 NIU       0.236100
      8 OA6          1.0160    20.0690    20.4670 oh         1 NIU      -0.520100
      9 CB1         -0.0580    16.5510    18.7280 ca         1 NIU      -0.054300
     10 CB2         -0.9610    17.1560    17.8520 ca         1 NIU      -0.104000
     11 CB3         -1.5280    16.4540    16.8000 ca         1 NIU      -0.109000
     12 CB4         -1.2000    15.1190    16.5940 ca         1 NIU      -0.114000
     13 CB5         -0.2960    14.5080    17.4490 ca         1 NIU      -0.109000
     14 CB6          0.2710    15.2190    18.5020 ca         1 NIU      -0.104000
     15 CG1          0.5940    17.3980    19.8070 c3         1 NIU       0.064800
     16 CG2          1.5750    16.6710    20.7410 c3         1 NIU      -0.062400
     17 CG3          0.9830    15.7340    21.7860 c3         1 NIU      -0.087100
     18 CD1         -3.3430    20.5130    22.6410 c3         1 NIU      -0.044200
     19 CD2         -3.9430    21.6750    21.8070 c3         1 NIU      -0.064400
     20 CD3         -3.0830    22.1860    20.6530 c3         1 NIU      -0.076400
     21 CD4         -1.7140    22.7440    21.0370 c3         1 NIU      -0.072400
     22 CD5         -0.8860    21.8160    21.9410 c3         1 NIU      -0.013200
     23 HO6          1.0920    21.0060    20.6840 ho         1 NIU       0.477000
     24 HB2         -1.2240    18.1990    17.9940 ha         1 NIU       0.108000
     25 HB3         -2.2250    16.9510    16.1380 ha         1 NIU       0.107500
     26 HB4         -1.6410    14.5660    15.7750 ha         1 NIU       0.109000
     27 HB5         -0.0250    13.4700    17.3000 ha         1 NIU       0.107500
     28 HB6          0.9760    14.7100    19.1450 ha         1 NIU       0.108000
     29 HG1          1.2200    18.1010    19.2480 hc         1 NIU       0.062700
     30 HG21         2.3040    16.1320    20.1290 hc         1 NIU       0.037200
     31 HG22         2.1510    17.4410    21.2580 hc         1 NIU       0.037200
     32 HG31         1.7860    15.2610    22.3540 hc         1 NIU       0.035033
     33 HG32         0.3580    16.2700    22.4990 hc         1 NIU       0.035033
     34 HG33         0.3790    14.9410    21.3480 hc         1 NIU       0.035033
     35 HD11        -4.1300    19.8140    22.9200 hc         1 NIU       0.069700
     36 HD12        -2.9390    20.9050    23.5780 hc         1 NIU       0.069700
     37 HD21        -4.8960    21.3470    21.3910 hc         1 NIU       0.047200
     38 HD22        -4.1720    22.4990    22.4860 hc         1 NIU       0.047200
     39 HD31        -2.9510    21.3870    19.9190 hc         1 NIU       0.046200
     40 HD32        -3.6410    22.9690    20.1340 hc         1 NIU       0.046200
     41 HD41        -1.1590    22.9510    20.1190 hc         1 NIU       0.042200
     42 HD42        -1.8310    23.7030    21.5490 hc         1 NIU       0.042200
     43 HD51        -1.1760    21.9680    22.9820 hc         1 NIU       0.043700
     44 HD52         0.1630    22.1220    21.9130 hc         1 NIU       0.043700
@<TRIPOS>BOND
     1     1     2 1   
     2     1     7 2   
     3     1    15 1   
     4     2     3 2   
     5     2     4 1   
     6     4     5 1   
     7     5     6 2   
     8     5    18 1   
     9     6     7 1   
    10     6    22 1   
    11     7     8 1   
    12     8    23 1   
    13     9    10 ar  
    14     9    14 ar  
    15     9    15 1   
    16    10    11 ar  
    17    10    24 1   
    18    11    12 ar  
    19    11    25 1   
    20    12    13 ar  
    21    12    26 1   
    22    13    14 ar  
    23    13    27 1   
    24    14    28 1   
    25    15    16 1   
    26    15    29 1   
    27    16    17 1   
    28    16    30 1   
    29    16    31 1   
    30    17    32 1   
    31    17    33 1   
    32    17    34 1   
    33    18    19 1   
    34    18    35 1   
    35    18    36 1   
    36    19    20 1   
    37    19    37 1   
    38    19    38 1   
    39    20    21 1   
    40    20    39 1   
    41    20    40 1   
    42    21    22 1   
    43    21    41 1   
    44    21    42 1   
    45    22    43 1   
    46    22    44 1   
@<TRIPOS>SUBSTRUCTURE
     1 NIU         1 TEMP              0 ****  ****    0 ROOT
