@<TRIPOS>MOLECULE
NIU
   44    46     1     0     0
SMALL
No Charge or Current Charge


@<TRIPOS>ATOM
      1 CA          -0.3250    18.2630    20.5710 cc         1 NIU      -0.298400
      2 CA2         -1.5930    17.6520    21.0230 c          1 NIU       0.683300
      3 OA2         -1.8930    16.4790    20.8530 o          1 NIU      -0.480000
      4 OA3         -2.4550    18.4700    21.6800 os         1 NIU      -0.338200
      5 CA4         -2.2530    19.7900    21.9510 cc         1 NIU       0.195900
      6 CA5         -1.0590    20.3740    21.5600 cd         1 NIU      -0.288200
      7 CA6         -0.0820    19.5890    20.8470 cd         1 NIU       0.236100
      8 OA6          1.0620    20.1790    20.4550 oh         1 NIU      -0.520100
      9 CB1         -0.0050    16.5290    18.6850 ca         1 NIU      -0.054300
     10 CB2         -0.8450    17.1930    17.7640 ca         1 NIU      -0.104000
     11 CB3         -1.4660    16.4920    16.7160 ca         1 NIU      -0.109000
     12 CB4         -1.2480    15.1140    16.5680 ca         1 NIU      -0.114000
     13 CB5         -0.4050    14.4410    17.4660 ca         1 NIU      -0.109000
     14 CB6          0.2160    15.1410    18.5150 ca         1 NIU      -0.104000
     15 CG1          0.6530    17.3630    19.8050 c3         1 NIU       0.064800
     16 CG2          1.6370    16.6170    20.7570 c3         1 NIU      -0.062400
     17 CG3          1.0050    15.7140    21.8410 c3         1 NIU      -0.087100
     18 CD1         -3.3910    20.4930    22.6520 c3         1 NIU      -0.044200
     19 CD2         -4.0110    21.6730    21.8510 c3         1 NIU      -0.064400
     20 CD3         -3.1560    22.2310    20.6810 c3         1 NIU      -0.076400
     21 CD4         -1.7590    22.7910    21.0600 c3         1 NIU      -0.072400
     22 CD5         -0.8540    21.8460    21.8900 c3         1 NIU      -0.013200
     23 HO6          0.9930    21.1130    20.7320 ho         1 NIU       0.477000
     24 HB2         -1.0200    18.2620    17.8610 ha         1 NIU       0.108000
     25 HB3         -2.1130    17.0180    16.0190 ha         1 NIU       0.107500
     26 HB4         -1.7260    14.5700    15.7570 ha         1 NIU       0.109000
     27 HB5         -0.2300    13.3740    17.3490 ha         1 NIU       0.107500
     28 HB6          0.8680    14.5880    19.1840 ha         1 NIU       0.108000
     29 HG1          1.3180    18.0260    19.2380 hc         1 NIU       0.062700
     30 HG21         2.3460    16.0300    20.1620 hc         1 NIU       0.037200
     31 HG22         2.2440    17.3710    21.2720 hc         1 NIU       0.037200
     32 HG31         1.7910    15.1930    22.4020 hc         1 NIU       0.035033
     33 HG32         0.4250    16.3090    22.5560 hc         1 NIU       0.035033
     34 HG33         0.3460    14.9570    21.4030 hc         1 NIU       0.035033
     35 HD11        -4.1830    19.7760    22.8990 hc         1 NIU       0.069700
     36 HD12        -3.0300    20.8700    23.6160 hc         1 NIU       0.069700
     37 HD21        -4.9670    21.3370    21.4320 hc         1 NIU       0.047200
     38 HD22        -4.2540    22.4880    22.5440 hc         1 NIU       0.047200
     39 HD31        -3.0360    21.4490    19.9200 hc         1 NIU       0.046200
     40 HD32        -3.7240    23.0320    20.1900 hc         1 NIU       0.046200
     41 HD41        -1.2360    23.0450    20.1300 hc         1 NIU       0.042200
     42 HD42        -1.8820    23.7340    21.6090 hc         1 NIU       0.042200
     43 HD51        -1.0710    22.0100    22.9530 hc         1 NIU       0.043700
     44 HD52         0.1880    22.1670    21.7790 hc         1 NIU       0.043700
@<TRIPOS>BOND
     1     1     2 1   
     2     1     7 2   
     3     1    15 1   
     4     2     3 2   
     5     2     4 1   
     6     4     5 1   
     7     5     6 2   
     8     5    18 1   
     9     6     7 1   
    10     6    22 1   
    11     7     8 1   
    12     8    23 1   
    13     9    10 ar  
    14     9    14 ar  
    15     9    15 1   
    16    10    11 ar  
    17    10    24 1   
    18    11    12 ar  
    19    11    25 1   
    20    12    13 ar  
    21    12    26 1   
    22    13    14 ar  
    23    13    27 1   
    24    14    28 1   
    25    15    16 1   
    26    15    29 1   
    27    16    17 1   
    28    16    30 1   
    29    16    31 1   
    30    17    32 1   
    31    17    33 1   
    32    17    34 1   
    33    18    19 1   
    34    18    35 1   
    35    18    36 1   
    36    19    20 1   
    37    19    37 1   
    38    19    38 1   
    39    20    21 1   
    40    20    39 1   
    41    20    40 1   
    42    21    22 1   
    43    21    41 1   
    44    21    42 1   
    45    22    43 1   
    46    22    44 1   
@<TRIPOS>SUBSTRUCTURE
     1 NIU         1 TEMP              0 ****  ****    0 ROOT
