@<TRIPOS>MOLECULE
NIW
   54    55     1     0     0
SMALL
abcg2


@<TRIPOS>ATOM
      1 O4           2.4990    -0.9050     1.7610 o          1 NIW      -0.465000
      2 O3           0.1400     5.0430     1.1560 o          1 NIW      -0.397000
      3 C5          -2.1390    -2.5440     1.1550 ca         1 NIW       0.433300
      4 C4          -1.8320    -1.2520     0.7160 ca         1 NIW      -0.183600
      5 C3          -0.4930    -0.8860     0.5820 cp         1 NIW       0.081000
      6 C2           0.4800    -1.8250     0.8960 ca         1 NIW      -0.185600
      7 O2          -0.8860     3.7380     2.4960 o          1 NIW      -0.397000
      8 C1           0.0960    -3.0950     1.3210 ca         1 NIW       0.428300
      9 C7          -2.9200    -0.2820     0.4020 c          1 NIW       0.616700
     10 C13          0.0490     2.8220     0.6190 ca         1 NIW      -0.183200
     11 C12         -0.3650     1.5560     1.0010 ca         1 NIW      -0.026000
     12 C11         -0.0850     0.4790     0.1710 cp         1 NIW      -0.069000
     13 C10         -2.8020     2.1810    -2.1630 c3         1 NIW      -0.105600
     14 C9          -4.8620     0.7460    -1.8820 c3         1 NIW      -0.105600
     15 C17          1.9240    -1.4400     0.8500 c          1 NIW       0.614700
     16 C19          4.0830    -1.5330    -2.0370 c3         1 NIW       0.153600
     17 O6           3.2780    -0.6450    -2.7640 os         1 NIW      -0.455000
     18 C20          3.4620    -0.7570    -4.1520 c3         1 NIW       0.143900
     19 O           -3.8270    -0.0320     1.1560 o          1 NIW      -0.476000
     20 N           -1.1840    -3.4250     1.4340 nb         1 NIW      -0.692000
     21 C            1.1100    -4.1300     1.6970 c3         1 NIW      -0.160400
     22 C16          0.6090     0.6870    -1.0190 ca         1 NIW      -0.034000
     23 C15          1.0240     1.9610    -1.3740 ca         1 NIW      -0.123000
     24 C14          0.7460     3.0450    -0.5590 ca         1 NIW      -0.043000
     25 H1          -4.0090    -2.5960     2.2080 hc         1 NIW       0.064700
     26 H2          -4.1780    -2.7680     0.4690 hc         1 NIW       0.064700
     27 H3          -3.5500    -4.1090     1.4290 hc         1 NIW       0.064700
     28 H4          -3.9140     1.9150    -0.3510 h1         1 NIW       0.066700
     29 H5          -0.8870     1.4000     1.9350 ha         1 NIW       0.161000
     30 H6          -2.5180     1.6300    -3.0610 hc         1 NIW       0.048200
     31 H7          -3.3850     3.0490    -2.4700 hc         1 NIW       0.048200
     32 H8          -1.8950     2.5390    -1.6770 hc         1 NIW       0.048200
     33 H9          -4.5960     0.1210    -2.7360 hc         1 NIW       0.048200
     34 H10         -5.4550     0.1530    -1.1860 hc         1 NIW       0.048200
     35 H11         -5.4940     1.5570    -2.2450 hc         1 NIW       0.048200
     36 H12          3.9640    -0.3110    -0.2730 h1         1 NIW       0.062700
     37 H13          4.5090    -1.9730     0.0110 h1         1 NIW       0.062700
     38 H14          5.1510    -1.3390    -2.2040 h1         1 NIW       0.037200
     39 H15          3.8990    -2.5750    -2.3330 h1         1 NIW       0.037200
     40 H16          3.2150    -1.7600    -4.5210 h1         1 NIW       0.032033
     41 H17          2.8010    -0.0390    -4.6360 h1         1 NIW       0.032033
     42 H18          4.4940    -0.5340    -4.4490 h1         1 NIW       0.032033
     43 H19          1.6190    -3.8530     2.6230 hc         1 NIW       0.063033
     44 H20          0.6270    -5.0920     1.8530 hc         1 NIW       0.063033
     45 H21          1.8740    -4.2470     0.9280 hc         1 NIW       0.063033
     46 H22          0.8280    -0.1430    -1.6760 ha         1 NIW       0.148000
     47 H23          1.5650     2.1130    -2.2970 ha         1 NIW       0.133000
     48 H24          1.0670     4.0360    -0.8440 ha         1 NIW       0.151000
     49 C6          -3.5480    -3.0280     1.3190 c3         1 NIW      -0.155400
     50 O5           2.4660    -1.7560    -0.3090 os         1 NIW      -0.433100
     51 O1          -2.7530     0.2530    -0.7900 os         1 NIW      -0.445100
     52 N1          -0.2540     3.9510     1.4890 no         1 NIW       0.695200
     53 C8          -3.6260     1.3260    -1.2240 c3         1 NIW       0.179300
     54 C18          3.8210    -1.3530    -0.5660 c3         1 NIW       0.160600
@<TRIPOS>BOND
     1     1    15 2   
     2     2    52 1   
     3     3     4 ar  
     4     3    20 ar  
     5     3    49 1   
     6     4     5 ar  
     7     4     9 1   
     8     5     6 ar  
     9     5    12 1   
    10     6     8 ar  
    11     6    15 1   
    12     7    52 1   
    13     8    20 ar  
    14     8    21 1   
    15     9    19 2   
    16     9    51 1   
    17    10    11 ar  
    18    10    24 ar  
    19    10    52 1   
    20    11    12 ar  
    21    11    29 1   
    22    12    22 ar  
    23    13    30 1   
    24    13    31 1   
    25    13    32 1   
    26    13    53 1   
    27    14    33 1   
    28    14    34 1   
    29    14    35 1   
    30    14    53 1   
    31    15    50 1   
    32    16    17 1   
    33    16    38 1   
    34    16    39 1   
    35    16    54 1   
    36    17    18 1   
    37    18    40 1   
    38    18    41 1   
    39    18    42 1   
    40    21    43 1   
    41    21    44 1   
    42    21    45 1   
    43    22    23 ar  
    44    22    46 1   
    45    23    24 ar  
    46    23    47 1   
    47    24    48 1   
    48    25    49 1   
    49    26    49 1   
    50    27    49 1   
    51    28    53 1   
    52    36    54 1   
    53    37    54 1   
    54    50    54 1   
    55    51    53 1   
@<TRIPOS>SUBSTRUCTURE
     1 NIW         1 TEMP              0 ****  ****    0 ROOT
