@<TRIPOS>MOLECULE
NIW
   54    55     1     0     0
SMALL
No Charge or Current Charge


@<TRIPOS>ATOM
      1 O4           2.5810    -1.3680     1.9070 o          1 NIW      -0.465000
      2 O3           0.4430     5.1280     1.2430 o          1 NIW      -0.397000
      3 C5          -2.2150    -2.5340     1.2380 ca         1 NIW       0.433300
      4 C4          -1.8390    -1.2630     0.7720 ca         1 NIW      -0.183600
      5 C3          -0.4700    -0.9170     0.6380 cp         1 NIW       0.081000
      6 C2           0.4470    -1.9290     1.0080 ca         1 NIW      -0.185600
      7 O2          -0.4300     3.8000     2.7390 o          1 NIW      -0.397000
      8 C1           0.0040    -3.1750     1.4660 ca         1 NIW       0.428300
      9 C7          -2.8490    -0.2270     0.4030 c          1 NIW       0.616700
     10 C13          0.2380     2.8500     0.6940 ca         1 NIW      -0.183200
     11 C12         -0.1670     1.5510     1.0860 ca         1 NIW      -0.026000
     12 C11         -0.0200     0.4450     0.2150 cp         1 NIW      -0.069000
     13 C10         -2.8590     1.9590    -2.5340 c3         1 NIW      -0.105600
     14 C9          -4.8880     0.5700    -1.8060 c3         1 NIW      -0.105600
     15 C17          1.8920    -1.5920     0.9220 c          1 NIW       0.614700
     16 C19          4.0450    -1.4180    -2.0950 c3         1 NIW       0.153600
     17 O6           3.3870    -0.3090    -2.7410 os         1 NIW      -0.455000
     18 C20          3.5530    -0.2630    -4.1680 c3         1 NIW       0.143900
     19 O           -3.7300     0.1380     1.1680 o          1 NIW      -0.476000
     20 N           -1.3070    -3.4750     1.5770 nb         1 NIW      -0.692000
     21 C            0.9700    -4.2760     1.8670 c3         1 NIW      -0.160400
     22 C16          0.5350     0.6630    -1.0670 ca         1 NIW      -0.034000
     23 C15          0.9450     1.9450    -1.4640 ca         1 NIW      -0.123000
     24 C14          0.7990     3.0360    -0.5910 ca         1 NIW      -0.043000
     25 H1          -4.1470    -2.4410     2.2100 hc         1 NIW       0.064700
     26 H2          -4.2310    -2.7270     0.4610 hc         1 NIW       0.064700
     27 H3          -3.7620    -4.0360     1.5500 hc         1 NIW       0.064700
     28 H4          -3.8010     2.0210    -0.5980 h1         1 NIW       0.066700
     29 H5          -0.6000     1.3830     2.0710 ha         1 NIW       0.161000
     30 H6          -2.5930     1.2370    -3.3150 hc         1 NIW       0.048200
     31 H7          -3.5000     2.7290    -2.9790 hc         1 NIW       0.048200
     32 H8          -1.9410     2.4440    -2.1810 hc         1 NIW       0.048200
     33 H9          -4.6810    -0.2180    -2.5400 hc         1 NIW       0.048200
     34 H10         -5.4070     0.1220    -0.9520 hc         1 NIW       0.048200
     35 H11         -5.5690     1.2960    -2.2670 hc         1 NIW       0.048200
     36 H12          4.0040    -0.3440    -0.2100 h1         1 NIW       0.062700
     37 H13          4.4090    -2.0700    -0.0600 h1         1 NIW       0.062700
     38 H14          5.1290    -1.3650    -2.2580 h1         1 NIW       0.037200
     39 H15          3.6850    -2.3760    -2.4910 h1         1 NIW       0.037200
     40 H16          3.1460    -1.1680    -4.6370 h1         1 NIW       0.032033
     41 H17          3.0260     0.6040    -4.5850 h1         1 NIW       0.032033
     42 H18          4.6150    -0.1790    -4.4340 h1         1 NIW       0.032033
     43 H19          1.5420    -3.9860     2.7560 hc         1 NIW       0.063033
     44 H20          0.4480    -5.2120     2.1000 hc         1 NIW       0.063033
     45 H21          1.6790    -4.4870     1.0590 hc         1 NIW       0.063033
     46 H22          0.6430    -0.1710    -1.7580 ha         1 NIW       0.148000
     47 H23          1.3750     2.0920    -2.4520 ha         1 NIW       0.133000
     48 H24          1.1220     4.0220    -0.9230 ha         1 NIW       0.151000
     49 C6          -3.6670    -2.9580     1.3720 c3         1 NIW      -0.155400
     50 O5           2.3730    -1.6650    -0.3560 os         1 NIW      -0.433100
     51 O1          -2.6780     0.2630    -0.8670 os         1 NIW      -0.445100
     52 N1           0.0730     4.0100     1.6270 no         1 NIW       0.695200
     53 C8          -3.5810     1.2650    -1.3650 c3         1 NIW       0.179300
     54 C18          3.7620    -1.3500    -0.5780 c3         1 NIW       0.160600
@<TRIPOS>BOND
     1     1    15 2   
     2     2    52 1   
     3     3     4 ar  
     4     3    20 ar  
     5     3    49 1   
     6     4     5 ar  
     7     4     9 1   
     8     5     6 ar  
     9     5    12 1   
    10     6     8 ar  
    11     6    15 1   
    12     7    52 1   
    13     8    20 ar  
    14     8    21 1   
    15     9    19 2   
    16     9    51 1   
    17    10    11 ar  
    18    10    24 ar  
    19    10    52 1   
    20    11    12 ar  
    21    11    29 1   
    22    12    22 ar  
    23    13    30 1   
    24    13    31 1   
    25    13    32 1   
    26    13    53 1   
    27    14    33 1   
    28    14    34 1   
    29    14    35 1   
    30    14    53 1   
    31    15    50 1   
    32    16    17 1   
    33    16    38 1   
    34    16    39 1   
    35    16    54 1   
    36    17    18 1   
    37    18    40 1   
    38    18    41 1   
    39    18    42 1   
    40    21    43 1   
    41    21    44 1   
    42    21    45 1   
    43    22    23 ar  
    44    22    46 1   
    45    23    24 ar  
    46    23    47 1   
    47    24    48 1   
    48    25    49 1   
    49    26    49 1   
    50    27    49 1   
    51    28    53 1   
    52    36    54 1   
    53    37    54 1   
    54    50    54 1   
    55    51    53 1   
@<TRIPOS>SUBSTRUCTURE
     1 NIW         1 TEMP              0 ****  ****    0 ROOT
