@<TRIPOS>MOLECULE
NIX
   28    29     1     0     0
SMALL
No Charge or Current Charge


@<TRIPOS>ATOM
      1 N1           0.3890     8.8470     3.5640 na         1 NIX      -0.620100
      2 C2           1.7870     8.8860     3.4120 cc         1 NIX       0.017000
      3 C3           2.2950     8.6050     2.1500 cd         1 NIX      -0.299400
      4 C4           1.4300     8.3520     0.9850 c          1 NIX       0.597900
      5 O4           1.8390     8.0230    -0.1230 o          1 NIX      -0.544100
      6 C4A         -0.0180     8.5280     1.1880 ca         1 NIX      -0.255600
      7 C5          -0.9070     8.4520     0.0960 ca         1 NIX       0.001000
      8 C6          -2.2670     8.6550     0.3320 ca         1 NIX      -0.242000
      9 C7          -2.6830     8.9240     1.6370 ca         1 NIX       0.393300
     10 N8          -1.8240     8.9910     2.6690 nb         1 NIX      -0.757000
     11 C8A         -0.4980     8.7930     2.4740 ca         1 NIX       0.607900
     12 C9          -4.1440     9.1630     1.9670 c3         1 NIX      -0.142400
     13 C1E         -0.1970     8.9220     4.9310 c3         1 NIX       0.233800
     14 C2E         -0.4220    10.3680     5.4100 c3         1 NIX      -0.109100
     15 C1L          3.7820     8.5640     2.0190 c          1 NIX       0.727200
     16 O1L          4.4510     8.7650     3.0220 o          1 NIX      -0.713500
     17 O2L          4.3130     8.3490     0.9420 o          1 NIX      -0.713500
     18 H2           2.3920     9.0670     4.3010 h4         1 NIX       0.226000
     19 H5          -0.5550     8.2490    -0.9150 ha         1 NIX       0.134000
     20 H6          -2.9840     8.6090    -0.4820 ha         1 NIX       0.108000
     21 H91         -4.7910     8.9300     1.1140 hc         1 NIX       0.041700
     22 H92         -4.3160    10.2100     2.2400 hc         1 NIX       0.041700
     23 H93         -4.4670     8.5370     2.8070 hc         1 NIX       0.041700
     24 HE11         0.4910     8.4300     5.6320 h1         1 NIX       0.053700
     25 HE21        -1.1390     8.3600     4.9860 h1         1 NIX       0.053700
     26 HE12        -1.1290    10.8910     4.7560 hc         1 NIX       0.039700
     27 HE22         0.5220    10.9250     5.4160 hc         1 NIX       0.039700
     28 HE32        -0.8290    10.3710     6.4280 hc         1 NIX       0.039700
@<TRIPOS>BOND
     1     1     2 1   
     2     1    11 1   
     3     1    13 1   
     4     2     3 2   
     5     2    18 1   
     6     3     4 1   
     7     3    15 1   
     8     4     5 2   
     9     4     6 1   
    10     6     7 ar  
    11     6    11 ar  
    12     7     8 ar  
    13     7    19 1   
    14     8     9 ar  
    15     8    20 1   
    16     9    10 ar  
    17     9    12 1   
    18    10    11 ar  
    19    12    21 1   
    20    12    22 1   
    21    12    23 1   
    22    13    14 1   
    23    13    24 1   
    24    13    25 1   
    25    14    26 1   
    26    14    27 1   
    27    14    28 1   
    28    15    16 1   
    29    15    17 1   
@<TRIPOS>SUBSTRUCTURE
     1 NIX         1 TEMP              0 ****  ****    0 ROOT
