@<TRIPOS>MOLECULE
NIX
   28    29     1     0     0
SMALL
bcc


@<TRIPOS>ATOM
      1 N1           0.3400     8.7830     3.5490 na         1 NIX      -0.620100
      2 C2           1.6660     8.6760     3.3390 cc         1 NIX       0.067000
      3 C3           2.2830     8.5490     2.1280 cd         1 NIX      -0.299400
      4 C4           1.4670     8.5210     0.9310 c          1 NIX       0.597900
      5 O4           1.8740     8.4000    -0.2220 o          1 NIX      -0.544100
      6 C4A          0.0210     8.6520     1.1850 ca         1 NIX      -0.320900
      7 C5          -0.9000     8.6500     0.1320 ca         1 NIX      -0.017000
      8 C6          -2.2430     8.7740     0.3900 ca         1 NIX      -0.325300
      9 C7          -2.6670     8.9020     1.7220 ca         1 NIX       0.458600
     10 N8          -1.8120     8.9050     2.7280 nb         1 NIX      -0.757000
     11 C8A         -0.5120     8.7830     2.4720 ca         1 NIX       0.673200
     12 C9          -4.1200     9.0540     2.0430 c3         1 NIX      -0.142400
     13 C1E         -0.1720     8.9550     4.9100 c3         1 NIX       0.233800
     14 C2E         -0.4490    10.4070     5.2540 c3         1 NIX      -0.109100
     15 C1L          3.8020     8.4380     2.1390 c          1 NIX       0.937800
     16 O1L          4.3450     8.4390     3.2640 o          1 NIX      -0.818800
     17 O2L          4.3820     8.3600     1.0430 o          1 NIX      -0.818800
     18 H2           2.2760     8.6910     4.2320 h4         1 NIX       0.176000
     19 H5          -0.5410     8.5470    -0.8830 ha         1 NIX       0.152000
     20 H6          -2.9690     8.7740    -0.4110 ha         1 NIX       0.126000
     21 H91         -4.7080     8.2580     1.5850 hc         1 NIX       0.041700
     22 H92         -4.5030     9.9980     1.6510 hc         1 NIX       0.041700
     23 H93         -4.2840     9.0370     3.1180 hc         1 NIX       0.041700
     24 HE11         0.5790     8.5420     5.5820 h1         1 NIX       0.053700
     25 HE21        -1.0710     8.3530     5.0200 h1         1 NIX       0.053700
     26 HE12        -1.2230    10.8260     4.6140 hc         1 NIX       0.039700
     27 HE22         0.4510    11.0150     5.1570 hc         1 NIX       0.039700
     28 HE32        -0.7910    10.4780     6.2870 hc         1 NIX       0.039700
@<TRIPOS>BOND
     1     1     2 1   
     2     1    11 1   
     3     1    13 1   
     4     2     3 2   
     5     2    18 1   
     6     3     4 1   
     7     3    15 1   
     8     4     5 2   
     9     4     6 1   
    10     6     7 ar  
    11     6    11 ar  
    12     7     8 ar  
    13     7    19 1   
    14     8     9 ar  
    15     8    20 1   
    16     9    10 ar  
    17     9    12 1   
    18    10    11 ar  
    19    12    21 1   
    20    12    22 1   
    21    12    23 1   
    22    13    14 1   
    23    13    24 1   
    24    13    25 1   
    25    14    26 1   
    26    14    27 1   
    27    14    28 1   
    28    15    16 1   
    29    15    17 1   
@<TRIPOS>SUBSTRUCTURE
     1 NIX         1 TEMP              0 ****  ****    0 ROOT
