@<TRIPOS>MOLECULE
NIZ
   17    17     1     0     0
SMALL
No Charge or Current Charge


@<TRIPOS>ATOM
      1 C           -1.2280    -0.4800    -0.0200 c          1 NIZ       0.630700
      2 C1           0.2580    -0.1710    -0.0040 ca         1 NIZ      -0.115600
      3 N1           3.0630     0.3390     0.0160 nb         1 NIZ      -0.651000
      4 O1          -1.6500    -1.6240    -0.1510 o          1 NIZ      -0.551100
      5 C2           0.7760     1.1400     0.1450 ca         1 NIZ      -0.131000
      6 N2          -2.0970     0.6090     0.1230 ns         1 NIZ      -0.405300
      7 C3           2.1680     1.3430     0.1490 ca         1 NIZ       0.330400
      8 N3          -3.5590     0.5270     0.1340 n8         1 NIZ      -0.718200
      9 C4           2.5800    -0.9160    -0.1270 ca         1 NIZ       0.330400
     10 C5           1.2060    -1.2110    -0.1420 ca         1 NIZ      -0.131000
     11 H2           0.1300     2.0050     0.2580 ha         1 NIZ       0.133000
     12 H3           2.5790     2.3460     0.2630 h4         1 NIZ       0.023600
     13 HN3         -3.9510     0.8910     1.0160 hn         1 NIZ       0.399000
     14 H4           3.3180    -1.7110    -0.2320 h4         1 NIZ       0.023600
     15 H5           0.8890    -2.2440    -0.2610 ha         1 NIZ       0.133000
     16 H6          -1.6560     1.5220     0.2260 hn         1 NIZ       0.302500
     17 H7          -3.9750     1.0880    -0.6250 hn         1 NIZ       0.399000
@<TRIPOS>BOND
     1     1     2 1   
     2     1     4 2   
     3     1     6 1   
     4     2     5 ar  
     5     2    10 ar  
     6     3     7 ar  
     7     3     9 ar  
     8     5     7 ar  
     9     5    11 1   
    10     6     8 1   
    11     6    16 1   
    12     7    12 1   
    13     8    13 1   
    14     8    17 1   
    15     9    10 ar  
    16     9    14 1   
    17    10    15 1   
@<TRIPOS>SUBSTRUCTURE
     1 NIZ         1 TEMP              0 ****  ****    0 ROOT
