@<TRIPOS>MOLECULE
NIZ
   17    17     1     0     0
SMALL
bcc


@<TRIPOS>ATOM
      1 C           -1.2330    -0.3730    -0.2830 c          1 NIZ       0.697700
      2 C1           0.2340    -0.0930    -0.1270 ca         1 NIZ      -0.115600
      3 N1           2.9820     0.3170     0.1220 nb         1 NIZ      -0.651000
      4 O1          -1.6190    -1.3910    -0.8300 o          1 NIZ      -0.551100
      5 C2           0.7700     1.1890    -0.1370 ca         1 NIZ      -0.214300
      6 N2          -2.0340     0.5730     0.2320 ns         1 NIZ      -0.472300
      7 C3           2.1450     1.3370    -0.0120 ca         1 NIZ       0.395700
      8 N3          -3.4100     0.4610     0.1500 n8         1 NIZ      -0.607800
      9 C4           2.4640    -0.9070     0.1240 ca         1 NIZ       0.395700
     10 C5           1.1090    -1.1650    -0.0080 ca         1 NIZ      -0.214300
     11 H2           0.1560     2.0710    -0.2620 ha         1 NIZ       0.151000
     12 H3           2.5820     2.3290    -0.0250 h4         1 NIZ       0.023600
     13 HN3         -3.7920     0.3820     1.0840 hn         1 NIZ       0.343800
     14 H4           3.1630    -1.7280     0.2340 h4         1 NIZ       0.023600
     15 H5           0.7500    -2.1850    -0.0070 ha         1 NIZ       0.151000
     16 H6          -1.6360     1.3290     0.7710 hn         1 NIZ       0.302500
     17 H7          -3.7800     1.3080    -0.2600 hn         1 NIZ       0.343800
@<TRIPOS>BOND
     1     1     2 1   
     2     1     4 2   
     3     1     6 1   
     4     2     5 ar  
     5     2    10 ar  
     6     3     7 ar  
     7     3     9 ar  
     8     5     7 ar  
     9     5    11 1   
    10     6     8 1   
    11     6    16 1   
    12     7    12 1   
    13     8    13 1   
    14     8    17 1   
    15     9    10 ar  
    16     9    14 1   
    17    10    15 1   
@<TRIPOS>SUBSTRUCTURE
     1 NIZ         1 TEMP              0 ****  ****    0 ROOT
