@<TRIPOS>MOLECULE
NJ0
   70    73     1     0     0
SMALL
No Charge or Current Charge


@<TRIPOS>ATOM
      1 C11        -19.9280   -17.7050   -10.8400 c3         1 NJ0       0.119700
      2 C12        -20.7640   -16.4100   -10.7170 c3         1 NJ0       0.039600
      3 C14        -21.8520   -14.4440    -8.8760 c3         1 NJ0      -0.010700
      4 C15        -23.1430   -15.3060    -8.7660 c3         1 NJ0      -0.013100
      5 C16        -22.9940   -16.5690    -7.9160 ca         1 NJ0      -0.077300
      6 C17        -23.3360   -17.8270    -8.4540 ca         1 NJ0      -0.099000
      7 C20        -22.4130   -17.6570    -5.8080 ca         1 NJ0      -0.110000
      8 C21        -22.5350   -16.4920    -6.5850 ca         1 NJ0      -0.099000
      9 C22        -22.0120   -13.3020    -9.9100 c          1 NJ0       0.602100
     10 O23        -22.3380   -13.4970   -11.0740 o          1 NJ0      -0.602100
     11 C02        -18.9370   -19.0660    -8.9620 c          1 NJ0       0.614100
     12 C03        -19.2890   -19.9090    -7.7340 c3         1 NJ0      -0.107100
     13 C04        -19.2860   -21.3950    -8.0860 ca         1 NJ0      -0.130300
     14 C05        -18.0710   -22.0850    -8.2900 ca         1 NJ0       0.361900
     15 C07        -19.1700   -24.0750    -8.7300 ca         1 NJ0       0.338900
     16 C08        -20.4260   -23.4700    -8.5540 ca         1 NJ0      -0.165000
     17 C09        -20.4920   -22.1060    -8.2260 ca         1 NJ0      -0.066000
     18 C18        -23.2160   -18.9910    -7.6750 ca         1 NJ0      -0.110000
     19 C19        -22.7560   -18.9060    -6.3510 ca         1 NJ0      -0.104000
     20 C25        -21.8890   -10.8060   -10.2110 c3         1 NJ0       0.161300
     21 C26        -23.2550   -10.1670   -10.0330 ca         1 NJ0      -0.161300
     22 C27        -23.4280    -9.0830    -9.1490 ca         1 NJ0       0.344900
     23 C29        -25.6890    -8.9350    -9.6360 ca         1 NJ0       0.338900
     24 C30        -25.6090   -10.0090   -10.5380 ca         1 NJ0      -0.164000
     25 C31        -24.3720   -10.6400   -10.7450 ca         1 NJ0      -0.043000
     26 C32        -20.3420   -18.5450   -12.0730 c3         1 NJ0      -0.044100
     27 C33        -19.6130   -19.8830   -12.1620 ca         1 NJ0      -0.079300
     28 C34        -18.2730   -19.9350   -12.5910 ca         1 NJ0      -0.102500
     29 C35        -17.5950   -21.1650   -12.6530 ca         1 NJ0      -0.106500
     30 C36        -18.2540   -22.3510   -12.2900 ca         1 NJ0      -0.105000
     31 C37        -19.5930   -22.3070   -11.8660 ca         1 NJ0      -0.106500
     32 C38        -20.2690   -21.0770   -11.7990 ca         1 NJ0      -0.102500
     33 N06        -18.0050   -23.4020    -8.5990 nb         1 NJ0      -0.665000
     34 N10        -20.0140   -18.5040    -9.6100 ns         1 NJ0      -0.497900
     35 N24        -21.7710   -12.0340    -9.4250 ns         1 NJ0      -0.498900
     36 N28        -24.6190    -8.4720    -8.9480 nb         1 NJ0      -0.669000
     37 O01        -17.7840   -18.9260    -9.3470 o          1 NJ0      -0.590100
     38 S13        -20.3110   -15.4600    -9.1850 ss         1 NJ0      -0.393000
     39 H1         -18.8820   -17.4000   -10.9810 h1         1 NJ0       0.098700
     40 H2         -20.6050   -15.7750   -11.5980 h1         1 NJ0       0.071700
     41 H3         -21.8230   -16.6860   -10.6840 h1         1 NJ0       0.071700
     42 H4         -21.7050   -13.9640    -7.9010 h1         1 NJ0       0.091700
     43 H5         -23.9390   -14.6800    -8.3450 hc         1 NJ0       0.064200
     44 H6         -23.4900   -15.5700    -9.7710 hc         1 NJ0       0.064200
     45 H7         -23.7010   -17.9060    -9.4750 ha         1 NJ0       0.105500
     46 H8         -22.0570   -17.5900    -4.7820 ha         1 NJ0       0.111500
     47 H9         -22.2740   -15.5300    -6.1500 ha         1 NJ0       0.105500
     48 H10        -20.2800   -19.6250    -7.3670 hc         1 NJ0       0.066200
     49 H11        -18.5440   -19.7200    -6.9520 hc         1 NJ0       0.066200
     50 H12        -17.1170   -21.5670    -8.1930 h4         1 NJ0       0.026100
     51 H13        -19.0940   -25.1320    -8.9830 h4         1 NJ0       0.017100
     52 H14        -21.3320   -24.0560    -8.6720 ha         1 NJ0       0.121000
     53 H15        -21.4540   -21.6190    -8.0860 ha         1 NJ0       0.112000
     54 H16        -23.4860   -19.9560    -8.0970 ha         1 NJ0       0.111500
     55 H17        -22.6650   -19.8070    -5.7470 ha         1 NJ0       0.114000
     56 H18        -21.7150   -11.0240   -11.2730 h1         1 NJ0       0.058700
     57 H19        -21.1060   -10.1070    -9.8870 h1         1 NJ0       0.058700
     58 H20        -22.5860    -8.6900    -8.5810 h4         1 NJ0       0.012100
     59 H21        -26.6370    -8.4280    -9.4590 h4         1 NJ0       0.019100
     60 H22        -26.4980   -10.3430   -11.0660 ha         1 NJ0       0.125000
     61 H23        -24.2840   -11.4750   -11.4380 ha         1 NJ0       0.125000
     62 H24        -20.1550   -17.9590   -12.9810 hc         1 NJ0       0.052700
     63 H25        -21.4250   -18.7140   -12.0410 hc         1 NJ0       0.052700
     64 H26        -17.7530   -19.0210   -12.8680 ha         1 NJ0       0.107500
     65 H27        -16.5580   -21.1980   -12.9810 ha         1 NJ0       0.111500
     66 H28        -17.7290   -23.3030   -12.3370 ha         1 NJ0       0.113000
     67 H29        -20.1040   -23.2240   -11.5850 ha         1 NJ0       0.111500
     68 H30        -21.3020   -21.0520   -11.4590 ha         1 NJ0       0.107500
     69 H31        -20.9250   -18.6540    -9.1960 hn         1 NJ0       0.305500
     70 H32        -21.4940   -11.9570    -8.4540 hn         1 NJ0       0.324500
@<TRIPOS>BOND
     1     1     2 1   
     2     1    26 1   
     3     1    34 1   
     4     1    39 1   
     5     2    38 1   
     6     2    40 1   
     7     2    41 1   
     8     3     4 1   
     9     3     9 1   
    10     3    38 1   
    11     3    42 1   
    12     4     5 1   
    13     4    43 1   
    14     4    44 1   
    15     5     6 ar  
    16     5     8 ar  
    17     6    18 ar  
    18     6    45 1   
    19     7     8 ar  
    20     7    19 ar  
    21     7    46 1   
    22     8    47 1   
    23     9    10 2   
    24     9    35 1   
    25    11    12 1   
    26    11    34 1   
    27    11    37 2   
    28    12    13 1   
    29    12    48 1   
    30    12    49 1   
    31    13    14 ar  
    32    13    17 ar  
    33    14    33 ar  
    34    14    50 1   
    35    15    16 ar  
    36    15    33 ar  
    37    15    51 1   
    38    16    17 ar  
    39    16    52 1   
    40    17    53 1   
    41    18    19 ar  
    42    18    54 1   
    43    19    55 1   
    44    20    21 1   
    45    20    35 1   
    46    20    56 1   
    47    20    57 1   
    48    21    22 ar  
    49    21    25 ar  
    50    22    36 ar  
    51    22    58 1   
    52    23    24 ar  
    53    23    36 ar  
    54    23    59 1   
    55    24    25 ar  
    56    24    60 1   
    57    25    61 1   
    58    26    27 1   
    59    26    62 1   
    60    26    63 1   
    61    27    28 ar  
    62    27    32 ar  
    63    28    29 ar  
    64    28    64 1   
    65    29    30 ar  
    66    29    65 1   
    67    30    31 ar  
    68    30    66 1   
    69    31    32 ar  
    70    31    67 1   
    71    32    68 1   
    72    34    69 1   
    73    35    70 1   
@<TRIPOS>SUBSTRUCTURE
     1 NJ0         1 TEMP              0 ****  ****    0 ROOT
