@<TRIPOS>MOLECULE
NJ0
   70    73     1     0     0
SMALL
abcg2


@<TRIPOS>ATOM
      1 C11        -20.3750   -17.7710   -10.8530 c3         1 NJ0       0.119700
      2 C12        -21.1910   -16.5110   -10.5720 c3         1 NJ0       0.039600
      3 C14        -22.0340   -14.7070    -8.5370 c3         1 NJ0      -0.010700
      4 C15        -23.3040   -15.4720    -8.1610 c3         1 NJ0      -0.013100
      5 C16        -23.1040   -16.3640    -6.9690 ca         1 NJ0      -0.077300
      6 C17        -23.0300   -17.7470    -7.1060 ca         1 NJ0      -0.099000
      7 C20        -22.7710   -16.6230    -4.5860 ca         1 NJ0      -0.110000
      8 C21        -22.9750   -15.8140    -5.6950 ca         1 NJ0      -0.099000
      9 C22        -22.2820   -13.6910    -9.6420 c          1 NJ0       0.602100
     10 O23        -23.1180   -13.8780   -10.5120 o          1 NJ0      -0.602100
     11 C02        -19.7410   -19.2840    -9.0100 c          1 NJ0       0.614100
     12 C03        -20.2620   -20.3620    -8.0730 c3         1 NJ0      -0.107100
     13 C04        -19.5110   -21.6420    -8.2960 ca         1 NJ0      -0.130300
     14 C05        -18.3530   -21.9340    -7.5820 ca         1 NJ0       0.361900
     15 C07        -18.0310   -23.8980    -8.6840 ca         1 NJ0       0.338900
     16 C08        -19.1710   -23.7120    -9.4510 ca         1 NJ0      -0.165000
     17 C09        -19.9200   -22.5640    -9.2500 ca         1 NJ0      -0.066000
     18 C18        -22.8310   -18.5620    -5.9990 ca         1 NJ0      -0.110000
     19 C19        -22.6970   -18.0030    -4.7360 ca         1 NJ0      -0.104000
     20 C25        -21.5960   -11.5590   -10.6050 c3         1 NJ0       0.161300
     21 C26        -22.8470   -10.7310   -10.4680 ca         1 NJ0      -0.161300
     22 C27        -23.0740    -9.9760    -9.3200 ca         1 NJ0       0.344900
     23 C29        -25.0680    -9.1980   -10.0860 ca         1 NJ0       0.338900
     24 C30        -24.9450    -9.9050   -11.2710 ca         1 NJ0      -0.164000
     25 C31        -23.8150   -10.6870   -11.4600 ca         1 NJ0      -0.043000
     26 C32        -20.6670   -18.2920   -12.2680 c3         1 NJ0      -0.044100
     27 C33        -19.8630   -19.5190   -12.5900 ca         1 NJ0      -0.079300
     28 C34        -18.5090   -19.4100   -12.9040 ca         1 NJ0      -0.102500
     29 C35        -17.7450   -20.5390   -13.1630 ca         1 NJ0      -0.106500
     30 C36        -18.3260   -21.8010   -13.1130 ca         1 NJ0      -0.105000
     31 C37        -19.6740   -21.9210   -12.8060 ca         1 NJ0      -0.106500
     32 C38        -20.4340   -20.7870   -12.5460 ca         1 NJ0      -0.102500
     33 N06        -17.6270   -23.0300    -7.7640 nb         1 NJ0      -0.665000
     34 N10        -20.6470   -18.7910    -9.8700 ns         1 NJ0      -0.497900
     35 N24        -21.5030   -12.5990    -9.6050 ns         1 NJ0      -0.498900
     36 N28        -24.1510    -9.2290    -9.1240 nb         1 NJ0      -0.669000
     37 O01        -18.5750   -18.9230    -8.9670 o          1 NJ0      -0.590100
     38 S13        -20.6350   -15.7770    -9.0060 ss         1 NJ0      -0.393000
     39 H1         -19.3110   -17.5360   -10.7880 h1         1 NJ0       0.098700
     40 H2         -21.0580   -15.8000   -11.3880 h1         1 NJ0       0.071700
     41 H3         -22.2510   -16.7640   -10.5110 h1         1 NJ0       0.071700
     42 H4         -21.6560   -14.1920    -7.6490 h1         1 NJ0       0.091700
     43 H5         -24.0810   -14.7350    -7.9400 hc         1 NJ0       0.064200
     44 H6         -23.6640   -16.0500    -9.0120 hc         1 NJ0       0.064200
     45 H7         -23.1360   -18.1920    -8.0880 ha         1 NJ0       0.105500
     46 H8         -22.6740   -16.1780    -3.6040 ha         1 NJ0       0.111500
     47 H9         -23.0380   -14.7390    -5.5690 ha         1 NJ0       0.105500
     48 H10        -21.3330   -20.5260    -8.2000 hc         1 NJ0       0.066200
     49 H11        -20.1090   -20.0070    -7.0510 hc         1 NJ0       0.066200
     50 H12        -18.0030   -21.2450    -6.8190 h4         1 NJ0       0.026100
     51 H13        -17.4210   -24.7850    -8.8160 h4         1 NJ0       0.017100
     52 H14        -19.4620   -24.4490   -10.1870 ha         1 NJ0       0.121000
     53 H15        -20.8160   -22.3860    -9.8330 ha         1 NJ0       0.112000
     54 H16        -22.7800   -19.6370    -6.1250 ha         1 NJ0       0.111500
     55 H17        -22.5420   -18.6370    -3.8730 ha         1 NJ0       0.114000
     56 H18        -21.5470   -11.9940   -11.6050 h1         1 NJ0       0.058700
     57 H19        -20.7150   -10.9260   -10.4900 h1         1 NJ0       0.058700
     58 H20        -22.3400    -9.9810    -8.5180 h4         1 NJ0       0.012100
     59 H21        -25.9410    -8.5810    -9.9040 h4         1 NJ0       0.019100
     60 H22        -25.7200    -9.8490   -12.0230 ha         1 NJ0       0.125000
     61 H23        -23.6880   -11.2570   -12.3720 ha         1 NJ0       0.125000
     62 H24        -20.4390   -17.4940   -12.9780 hc         1 NJ0       0.052700
     63 H25        -21.7360   -18.5030   -12.3610 hc         1 NJ0       0.052700
     64 H26        -18.0480   -18.4300   -12.9480 ha         1 NJ0       0.107500
     65 H27        -16.6950   -20.4340   -13.4060 ha         1 NJ0       0.111500
     66 H28        -17.7320   -22.6830   -13.3150 ha         1 NJ0       0.113000
     67 H29        -20.1360   -22.8990   -12.7640 ha         1 NJ0       0.111500
     68 H30        -21.4860   -20.8920   -12.3060 ha         1 NJ0       0.107500
     69 H31        -21.5860   -19.1570    -9.8390 hn         1 NJ0       0.305500
     70 H32        -20.8200   -12.4950    -8.8720 hn         1 NJ0       0.324500
@<TRIPOS>BOND
     1     1     2 1   
     2     1    26 1   
     3     1    34 1   
     4     1    39 1   
     5     2    38 1   
     6     2    40 1   
     7     2    41 1   
     8     3     4 1   
     9     3     9 1   
    10     3    38 1   
    11     3    42 1   
    12     4     5 1   
    13     4    43 1   
    14     4    44 1   
    15     5     6 ar  
    16     5     8 ar  
    17     6    18 ar  
    18     6    45 1   
    19     7     8 ar  
    20     7    19 ar  
    21     7    46 1   
    22     8    47 1   
    23     9    10 2   
    24     9    35 1   
    25    11    12 1   
    26    11    34 1   
    27    11    37 2   
    28    12    13 1   
    29    12    48 1   
    30    12    49 1   
    31    13    14 ar  
    32    13    17 ar  
    33    14    33 ar  
    34    14    50 1   
    35    15    16 ar  
    36    15    33 ar  
    37    15    51 1   
    38    16    17 ar  
    39    16    52 1   
    40    17    53 1   
    41    18    19 ar  
    42    18    54 1   
    43    19    55 1   
    44    20    21 1   
    45    20    35 1   
    46    20    56 1   
    47    20    57 1   
    48    21    22 ar  
    49    21    25 ar  
    50    22    36 ar  
    51    22    58 1   
    52    23    24 ar  
    53    23    36 ar  
    54    23    59 1   
    55    24    25 ar  
    56    24    60 1   
    57    25    61 1   
    58    26    27 1   
    59    26    62 1   
    60    26    63 1   
    61    27    28 ar  
    62    27    32 ar  
    63    28    29 ar  
    64    28    64 1   
    65    29    30 ar  
    66    29    65 1   
    67    30    31 ar  
    68    30    66 1   
    69    31    32 ar  
    70    31    67 1   
    71    32    68 1   
    72    34    69 1   
    73    35    70 1   
@<TRIPOS>SUBSTRUCTURE
     1 NJ0         1 TEMP              0 ****  ****    0 ROOT
