@<TRIPOS>MOLECULE
NJ1
   87    90     1     0     0
SMALL
No Charge or Current Charge


@<TRIPOS>ATOM
      1 C13         71.8890    55.7960    14.4260 c3         1 NJ1       0.157300
      2 C15         71.2090    56.6690    15.5260 c3         1 NJ1       0.101700
      3 C17         73.0120    58.2110    16.3230 c          1 NJ1       0.636100
      4 C20         74.1970    59.9640    17.4190 c5         1 NJ1       0.162300
      5 C21         74.5720    61.4260    17.0580 c5         1 NJ1       0.151600
      6 C24         73.4300    61.6610    19.0540 c5         1 NJ1       0.367300
      7 C26         71.3430    60.6760    18.8560 c5         1 NJ1       0.149600
      8 C28         69.6730    56.8320    15.3810 c3         1 NJ1      -0.043100
      9 C01         66.6830    53.2240    13.3430 ca         1 NJ1      -0.062300
     10 C02         66.8400    53.6400    14.6820 ca         1 NJ1      -0.114000
     11 C03         67.9950    53.3020    15.4060 ca         1 NJ1      -0.018000
     12 C04         69.0140    52.5430    14.7970 ca         1 NJ1      -0.311500
     13 C05         68.8630    52.1180    13.4610 ca         1 NJ1      -0.018000
     14 C06         67.7040    52.4590    12.7420 ca         1 NJ1      -0.114000
     15 C11         72.7340    53.5140    16.3570 c3         1 NJ1       0.203800
     16 C12         71.3890    54.3180    14.4160 c3         1 NJ1       0.203800
     17 C23         73.6950    60.1240    18.9150 c5         1 NJ1      -0.140700
     18 C25         72.2800    59.4970    19.2020 c5         1 NJ1      -0.096400
     19 C29         69.0730    57.6760    16.5020 ca         1 NJ1      -0.085300
     20 C30         68.9980    57.1600    17.8110 ca         1 NJ1      -0.099500
     21 C31         68.4630    57.9380    18.8520 ca         1 NJ1      -0.113000
     22 C32         67.9970    59.2370    18.5900 ca         1 NJ1      -0.113000
     23 C33         68.0700    59.7590    17.2880 ca         1 NJ1      -0.113000
     24 C34         68.6070    58.9810    16.2460 ca         1 NJ1      -0.099500
     25 C35         65.4120    55.0660    12.0430 c3         1 NJ1       0.169600
     26 C37         72.7970    53.2780    17.8960 c3         1 NJ1      -0.071700
     27 C38         71.9950    54.3610    18.6810 c3         1 NJ1      -0.070400
     28 C39         74.2690    53.1160    18.3840 c3         1 NJ1      -0.070400
     29 C40         65.4270    53.5840    12.5400 c3         1 NJ1       0.213600
     30 C41         75.1580    54.3770    18.2840 c3         1 NJ1      -0.087600
     31 N10         71.3790    53.6160    15.7390 n3         1 NJ1      -0.744500
     32 N16         71.8470    57.9850    15.6520 ns         1 NJ1      -0.502900
     33 O08         71.3080    51.1710    14.9730 o          1 NJ1      -0.543500
     34 O09         70.0760    51.8960    17.1090 o          1 NJ1      -0.543500
     35 O14         71.6990    56.3930    13.1280 oh         1 NJ1      -0.669000
     36 O18         73.7310    57.3410    16.7860 o          1 NJ1      -0.536000
     37 O19         73.1370    59.5580    16.5050 os         1 NJ1      -0.462100
     38 O22         73.5780    62.2150    17.7360 os         1 NJ1      -0.467000
     39 O27         72.0470    61.7910    19.4330 os         1 NJ1      -0.446000
     40 O43         64.2400    53.2760    13.2950 oh         1 NJ1      -0.644000
     41 S07         70.5050    52.1400    15.7280 sy         1 NJ1       1.187600
     42 H131        72.9650    55.7780    14.6410 h1         1 NJ1       0.051700
     43 H151        71.3740    56.1520    16.4810 h1         1 NJ1       0.101700
     44 H201        75.0730    59.3070    17.3200 h1         1 NJ1       0.085700
     45 H211        74.5420    61.6220    15.9780 h1         1 NJ1       0.062200
     46 H212        75.5670    61.6920    17.4400 h1         1 NJ1       0.062200
     47 H241        74.1030    62.1510    19.7710 h2         1 NJ1       0.082700
     48 H261        70.3480    60.5810    19.3100 h1         1 NJ1       0.056200
     49 H262        71.2320    60.8260    17.7730 h1         1 NJ1       0.056200
     50 H282        69.4430    57.2740    14.4050 hc         1 NJ1       0.065700
     51 H281        69.2020    55.8440    15.3840 hc         1 NJ1       0.065700
     52 H021        66.0660    54.2330    15.1620 ha         1 NJ1       0.125500
     53 H031        68.1000    53.6400    16.4360 ha         1 NJ1       0.134500
     54 H051        69.6400    51.5320    12.9720 ha         1 NJ1       0.134500
     55 H061        67.6040    52.1270    11.7110 ha         1 NJ1       0.125500
     56 H112        73.3090    52.7230    15.8550 h1         1 NJ1       0.045200
     57 H111        73.2860    54.4420    16.1820 h1         1 NJ1       0.045200
     58 H122        70.3820    54.3630    13.9880 h1         1 NJ1       0.069700
     59 H121        72.0030    53.7530    13.7010 h1         1 NJ1       0.069700
     60 H231        74.4520    59.7800    19.6280 hc         1 NJ1       0.077700
     61 H252        72.1810    59.2490    20.2650 hc         1 NJ1       0.068200
     62 H251        72.0430    58.5780    18.6600 hc         1 NJ1       0.068200
     63 H301        69.3530    56.1550    18.0220 ha         1 NJ1       0.118000
     64 H311        68.4080    57.5340    19.8600 ha         1 NJ1       0.111500
     65 H321        67.5810    59.8390    19.3950 ha         1 NJ1       0.110000
     66 H331        67.7120    60.7650    17.0840 ha         1 NJ1       0.111500
     67 H341        68.6600    59.3950    15.2420 ha         1 NJ1       0.118000
     68 H351        64.5380    55.2050    11.3920 h1         1 NJ1       0.033200
     69 H352        66.3040    55.2310    11.4230 h1         1 NJ1       0.033200
     70 H362        71.2530    54.8810    20.6630 hc         1 NJ1       0.032367
     71 H361        71.5360    53.1420    20.4370 hc         1 NJ1       0.032367
     72 H363        72.9090    54.2520    20.6710 hc         1 NJ1       0.032367
     73 H371        72.3250    52.3130    18.1040 hc         1 NJ1       0.082700
     74 H382        72.4140    55.3540    18.4820 hc         1 NJ1       0.041950
     75 H381        70.9670    54.3810    18.3020 hc         1 NJ1       0.041950
     76 H392        74.7440    52.3130    17.8060 hc         1 NJ1       0.041950
     77 H391        74.2710    52.7680    19.4240 hc         1 NJ1       0.041950
     78 H401        65.4290    52.9600    11.6360 h1         1 NJ1       0.041700
     79 H411        76.1660    54.1550    18.6540 hc         1 NJ1       0.032367
     80 H412        75.2520    54.7190    17.2470 hc         1 NJ1       0.032367
     81 H413        74.7540    55.1980    18.8870 hc         1 NJ1       0.032367
     82 H161        71.3190    58.8110    15.4040 hn         1 NJ1       0.321500
     83 H141        72.0030    57.3240    13.2020 ho         1 NJ1       0.449000
     84 H421        65.3210    56.9150    12.7100 ho         1 NJ1       0.442000
     85 H431        64.3740    52.3770    13.6640 ho         1 NJ1       0.446000
     86 O42         65.3810    56.0250    13.1210 oh         1 NJ1      -0.651000
     87 C36         71.9220    54.1420    20.2060 c3         1 NJ1      -0.087600
@<TRIPOS>BOND
     1     1     2 1   
     2     1    16 1   
     3     1    35 1   
     4     1    42 1   
     5     2     8 1   
     6     2    32 1   
     7     2    43 1   
     8     3    32 1   
     9     3    36 2   
    10     3    37 1   
    11     4     5 1   
    12     4    17 1   
    13     4    37 1   
    14     4    44 1   
    15     5    38 1   
    16     5    45 1   
    17     5    46 1   
    18     6    17 1   
    19     6    38 1   
    20     6    39 1   
    21     6    47 1   
    22     7    18 1   
    23     7    39 1   
    24     7    48 1   
    25     7    49 1   
    26     8    19 1   
    27     8    50 1   
    28     8    51 1   
    29     9    10 ar  
    30     9    14 ar  
    31     9    29 1   
    32    10    11 ar  
    33    10    52 1   
    34    11    12 ar  
    35    11    53 1   
    36    12    13 ar  
    37    12    41 1   
    38    13    14 ar  
    39    13    54 1   
    40    14    55 1   
    41    15    26 1   
    42    15    31 1   
    43    15    56 1   
    44    15    57 1   
    45    16    31 1   
    46    16    58 1   
    47    16    59 1   
    48    17    18 1   
    49    17    60 1   
    50    18    61 1   
    51    18    62 1   
    52    19    20 ar  
    53    19    24 ar  
    54    20    21 ar  
    55    20    63 1   
    56    21    22 ar  
    57    21    64 1   
    58    22    23 ar  
    59    22    65 1   
    60    23    24 ar  
    61    23    66 1   
    62    24    67 1   
    63    25    29 1   
    64    25    68 1   
    65    25    69 1   
    66    25    86 1   
    67    26    27 1   
    68    26    28 1   
    69    26    73 1   
    70    27    74 1   
    71    27    75 1   
    72    27    87 1   
    73    28    30 1   
    74    28    76 1   
    75    28    77 1   
    76    29    40 1   
    77    29    78 1   
    78    30    79 1   
    79    30    80 1   
    80    30    81 1   
    81    31    41 1   
    82    32    82 1   
    83    33    41 2   
    84    34    41 2   
    85    35    83 1   
    86    40    85 1   
    87    70    87 1   
    88    71    87 1   
    89    72    87 1   
    90    84    86 1   
@<TRIPOS>SUBSTRUCTURE
     1 NJ1         1 TEMP              0 ****  ****    0 ROOT
