@<TRIPOS>MOLECULE
NJ1
   87    90     1     0     0
SMALL
abcg2


@<TRIPOS>ATOM
      1 C13         70.5820    57.2190    15.0780 c3         1 NJ1       0.157300
      2 C15         70.4510    57.7740    16.5060 c3         1 NJ1       0.101700
      3 C17         72.4000    58.5740    17.7930 c          1 NJ1       0.636100
      4 C20         74.2790    59.6320    18.8320 c5         1 NJ1       0.162300
      5 C21         75.4190    60.4790    18.2970 c5         1 NJ1       0.151600
      6 C24         74.4440    61.8160    19.9100 c5         1 NJ1       0.367300
      7 C26         72.1530    61.9910    19.6810 c5         1 NJ1       0.149600
      8 C28         69.0870    58.4240    16.7880 c3         1 NJ1      -0.043100
      9 C01         66.9450    51.5130    13.2600 ca         1 NJ1      -0.062300
     10 C02         66.5460    52.8340    13.4590 ca         1 NJ1      -0.114000
     11 C03         67.1170    53.6030    14.4630 ca         1 NJ1      -0.018000
     12 C04         68.1000    53.0450    15.2780 ca         1 NJ1      -0.311500
     13 C05         68.4990    51.7220    15.1040 ca         1 NJ1      -0.018000
     14 C06         67.9150    50.9650    14.0990 ca         1 NJ1      -0.114000
     15 C11         71.1830    54.0280    15.0460 c3         1 NJ1       0.203800
     16 C12         69.6840    56.0090    14.8300 c3         1 NJ1       0.203800
     17 C23         73.8730    60.3880    20.1120 c5         1 NJ1      -0.140700
     18 C25         72.3770    60.6350    20.3400 c5         1 NJ1      -0.096400
     19 C29         68.9330    58.8140    18.2350 ca         1 NJ1      -0.085300
     20 C30         68.7640    57.8330    19.2150 ca         1 NJ1      -0.099500
     21 C31         68.6460    58.1800    20.5560 ca         1 NJ1      -0.113000
     22 C32         68.6910    59.5180    20.9390 ca         1 NJ1      -0.113000
     23 C33         68.8550    60.5020    19.9710 ca         1 NJ1      -0.113000
     24 C34         68.9790    60.1500    18.6300 ca         1 NJ1      -0.099500
     25 C35         67.3180    50.6300    10.9360 c3         1 NJ1       0.169600
     26 C37         72.3410    53.6570    15.9760 c3         1 NJ1      -0.071700
     27 C38         73.1060    54.8990    16.4440 c3         1 NJ1      -0.070400
     28 C39         73.2280    52.6050    15.2850 c3         1 NJ1      -0.070400
     29 C40         66.3800    50.6710    12.1340 c3         1 NJ1       0.213600
     30 C41         73.9900    53.0890    14.0500 c3         1 NJ1      -0.087600
     31 N10         70.1080    54.8600    15.6440 n3         1 NJ1      -0.744500
     32 N16         71.5300    58.7110    16.7750 ns         1 NJ1      -0.502900
     33 O08         69.5780    53.1800    17.4120 o          1 NJ1      -0.543500
     34 O09         67.9990    55.0480    16.9640 o          1 NJ1      -0.543500
     35 O14         70.2280    58.1810    14.0820 oh         1 NJ1      -0.669000
     36 O18         72.4530    57.6380    18.5740 o          1 NJ1      -0.536000
     37 O19         73.2410    59.6370    17.8310 os         1 NJ1      -0.462100
     38 O22         75.0730    61.8260    18.6260 os         1 NJ1      -0.467000
     39 O27         73.3730    62.7180    19.9420 os         1 NJ1      -0.446000
     40 O43         65.1100    51.1280    11.6780 oh         1 NJ1      -0.644000
     41 S07         68.9280    54.0580    16.4690 sy         1 NJ1       1.187600
     42 H131        71.6230    56.9180    14.9390 h1         1 NJ1       0.051700
     43 H151        70.5970    56.9400    17.1880 h1         1 NJ1       0.101700
     44 H201        74.5670    58.6040    19.0300 h1         1 NJ1       0.085700
     45 H211        75.5340    60.4030    17.2170 h1         1 NJ1       0.062200
     46 H212        76.3560    60.1890    18.7850 h1         1 NJ1       0.062200
     47 H241        75.1680    62.1340    20.6630 h2         1 NJ1       0.082700
     48 H261        71.3340    62.5640    20.1110 h1         1 NJ1       0.056200
     49 H262        71.9970    61.8920    18.6040 h1         1 NJ1       0.056200
     50 H282        68.9740    59.2990    16.1480 hc         1 NJ1       0.065700
     51 H281        68.3030    57.7170    16.5180 hc         1 NJ1       0.065700
     52 H021        65.7830    53.2610    12.8250 ha         1 NJ1       0.125500
     53 H031        66.7990    54.6260    14.6110 ha         1 NJ1       0.134500
     54 H051        69.2490    51.2920    15.7520 ha         1 NJ1       0.134500
     55 H061        68.2190    49.9330    13.9660 ha         1 NJ1       0.125500
     56 H112        70.7470    53.1190    14.6200 h1         1 NJ1       0.045200
     57 H111        71.5630    54.6070    14.2060 h1         1 NJ1       0.045200
     58 H122        68.6550    56.2640    15.0650 h1         1 NJ1       0.069700
     59 H121        69.7290    55.7500    13.7700 h1         1 NJ1       0.069700
     60 H231        74.3380    59.8980    20.9650 hc         1 NJ1       0.077700
     61 H252        72.1770    60.7040    21.4090 hc         1 NJ1       0.068200
     62 H251        71.7380    59.8590    19.9300 hc         1 NJ1       0.068200
     63 H301        68.7260    56.7910    18.9210 ha         1 NJ1       0.118000
     64 H311        68.5170    57.4060    21.3030 ha         1 NJ1       0.111500
     65 H321        68.6020    59.7900    21.9830 ha         1 NJ1       0.110000
     66 H331        68.8990    61.5450    20.2600 ha         1 NJ1       0.111500
     67 H341        69.1190    60.9200    17.8810 ha         1 NJ1       0.118000
     68 H351        66.8550    50.0120    10.1600 h1         1 NJ1       0.033200
     69 H352        68.2530    50.1550    11.2470 h1         1 NJ1       0.033200
     70 H362        74.6840    55.5290    17.7890 hc         1 NJ1       0.032367
     71 H361        73.8850    54.0330    18.2760 hc         1 NJ1       0.032367
     72 H363        75.0430    54.0230    16.9460 hc         1 NJ1       0.032367
     73 H371        71.9130    53.1760    16.8580 hc         1 NJ1       0.082700
     74 H382        73.4930    55.4400    15.5760 hc         1 NJ1       0.041950
     75 H381        72.4020    55.5720    16.9340 hc         1 NJ1       0.041950
     76 H392        72.5950    51.7560    15.0080 hc         1 NJ1       0.041950
     77 H391        73.9430    52.2210    16.0160 hc         1 NJ1       0.041950
     78 H401        66.2990    49.6370    12.4900 h1         1 NJ1       0.041700
     79 H411        74.5830    52.2760    13.6270 hc         1 NJ1       0.032367
     80 H412        73.3160    53.4440    13.2670 hc         1 NJ1       0.032367
     81 H413        74.6730    53.9040    14.2940 hc         1 NJ1       0.032367
     82 H161        71.5500    59.5860    16.2730 hn         1 NJ1       0.321500
     83 H141        70.9620    58.7970    13.9690 ho         1 NJ1       0.449000
     84 H421        68.1950    51.9030     9.7420 ho         1 NJ1       0.442000
     85 H431        64.4800    51.0610    12.4070 ho         1 NJ1       0.446000
     86 O42         67.5510    51.9520    10.4580 oh         1 NJ1      -0.651000
     87 C36         74.2460    54.6020    17.4150 c3         1 NJ1      -0.087600
@<TRIPOS>BOND
     1     1     2 1   
     2     1    16 1   
     3     1    35 1   
     4     1    42 1   
     5     2     8 1   
     6     2    32 1   
     7     2    43 1   
     8     3    32 1   
     9     3    36 2   
    10     3    37 1   
    11     4     5 1   
    12     4    17 1   
    13     4    37 1   
    14     4    44 1   
    15     5    38 1   
    16     5    45 1   
    17     5    46 1   
    18     6    17 1   
    19     6    38 1   
    20     6    39 1   
    21     6    47 1   
    22     7    18 1   
    23     7    39 1   
    24     7    48 1   
    25     7    49 1   
    26     8    19 1   
    27     8    50 1   
    28     8    51 1   
    29     9    10 ar  
    30     9    14 ar  
    31     9    29 1   
    32    10    11 ar  
    33    10    52 1   
    34    11    12 ar  
    35    11    53 1   
    36    12    13 ar  
    37    12    41 1   
    38    13    14 ar  
    39    13    54 1   
    40    14    55 1   
    41    15    26 1   
    42    15    31 1   
    43    15    56 1   
    44    15    57 1   
    45    16    31 1   
    46    16    58 1   
    47    16    59 1   
    48    17    18 1   
    49    17    60 1   
    50    18    61 1   
    51    18    62 1   
    52    19    20 ar  
    53    19    24 ar  
    54    20    21 ar  
    55    20    63 1   
    56    21    22 ar  
    57    21    64 1   
    58    22    23 ar  
    59    22    65 1   
    60    23    24 ar  
    61    23    66 1   
    62    24    67 1   
    63    25    29 1   
    64    25    68 1   
    65    25    69 1   
    66    25    86 1   
    67    26    27 1   
    68    26    28 1   
    69    26    73 1   
    70    27    74 1   
    71    27    75 1   
    72    27    87 1   
    73    28    30 1   
    74    28    76 1   
    75    28    77 1   
    76    29    40 1   
    77    29    78 1   
    78    30    79 1   
    79    30    80 1   
    80    30    81 1   
    81    31    41 1   
    82    32    82 1   
    83    33    41 2   
    84    34    41 2   
    85    35    83 1   
    86    40    85 1   
    87    70    87 1   
    88    71    87 1   
    89    72    87 1   
    90    84    86 1   
@<TRIPOS>SUBSTRUCTURE
     1 NJ1         1 TEMP              0 ****  ****    0 ROOT
