@<TRIPOS>MOLECULE
NJ2
   62    67     1     0     0
SMALL
bcc


@<TRIPOS>ATOM
      1 FBI        -26.9420    -7.5640    -1.5480 f          1 NJ2      -0.126900
      2 CBH        -28.0200    -7.8690    -0.8190 ca         1 NJ2       0.155900
      3 CBJ        -28.7200    -9.0280    -1.0780 ca         1 NJ2      -0.168000
      4 CBK        -29.8320    -9.3210    -0.3000 ca         1 NJ2      -0.094000
      5 CBL        -30.2250    -8.4660     0.7190 ca         1 NJ2      -0.141000
      6 CBM        -29.5020    -7.3090     0.9700 ca         1 NJ2      -0.083000
      7 CBG        -28.3940    -7.0050     0.1970 ca         1 NJ2      -0.030200
      8 NBF        -27.6620    -5.8110     0.3990 na         1 NJ2      -0.258800
      9 CAK        -26.3840    -5.6490     0.8540 cc         1 NJ2       0.366500
     10 CAH        -25.5100    -6.7080     1.3530 ca         1 NJ2       0.334300
     11 CAG        -24.1400    -6.4750     1.4870 ca         1 NJ2      -0.156300
     12 CAF        -23.3430    -7.4850     1.9750 ca         1 NJ2      -0.141000
     13 NAI        -26.0630    -7.8630     1.6820 nb         1 NJ2      -0.641000
     14 CAJ        -25.3030    -8.8420     2.1490 ca         1 NJ2       0.317200
     15 CAE        -23.9240    -8.7070     2.3190 ca         1 NJ2       0.045800
     16 OAD        -23.1130    -9.6610     2.7880 os         1 NJ2      -0.315900
     17 CAC        -23.6650   -10.9270     3.1420 c3         1 NJ2       0.140400
     18 CAB        -22.5440   -11.7980     3.6540 c3         1 NJ2      -0.095100
     19 NAL        -26.0610    -4.3900     0.7830 nd         1 NJ2      -0.357000
     20 NAM        -27.1110    -3.7110     0.2690 nd         1 NJ2      -0.353000
     21 CAN        -28.0690    -4.5600     0.0340 cc         1 NJ2       0.406800
     22 CAO        -29.4130    -4.2590    -0.5140 cy         1 NJ2      -0.114000
     23 CAR        -30.4700    -3.9290     0.5760 cy         1 NJ2      -0.092400
     24 CAP        -29.5640    -2.8090    -1.0220 cy         1 NJ2      -0.092400
     25 CAQ        -30.1870    -2.4350     0.3310 cy         1 NJ2       0.093700
     26 NAS        -31.2910    -1.5230     0.3230 ns         1 NJ2      -0.538900
     27 CAT        -31.5060    -0.5790     1.2440 c          1 NJ2       0.572600
     28 OAU        -30.7750    -0.3410     2.1930 o          1 NJ2      -0.590100
     29 CAV        -32.7700     0.2190     1.0320 ca         1 NJ2       0.394800
     30 NBE        -33.5240    -0.1040     0.0130 nb         1 NJ2      -0.676000
     31 CBD        -34.6610     0.5900    -0.1930 ca         1 NJ2       0.425600
     32 CBC        -35.5040     0.2750    -1.2790 ca         1 NJ2      -0.279600
     33 CBB        -36.6490     1.0000    -1.4520 ca         1 NJ2       0.397200
     34 NBA        -37.0310     2.0130    -0.6400 nb         1 NJ2      -0.660000
     35 CAZ        -36.2630     2.3180     0.3690 ca         1 NJ2       0.438200
     36 CAY        -35.0530     1.6460     0.6580 ca         1 NJ2      -0.268600
     37 CAX        -34.2210     1.9720     1.7470 ca         1 NJ2      -0.068000
     38 CAW        -33.0730     1.2580     1.9380 ca         1 NJ2      -0.206300
     39 HBJ        -28.4020    -9.6870    -1.8750 ha         1 NJ2       0.154000
     40 HBK        -30.3920   -10.2260    -0.4960 ha         1 NJ2       0.139000
     41 HBL        -31.0900    -8.6990     1.3240 ha         1 NJ2       0.142000
     42 HBM        -29.7900    -6.6450     1.7740 ha         1 NJ2       0.150000
     43 HAH        -23.7120    -5.5230     1.2070 ha         1 NJ2       0.169000
     44 HAG        -22.2760    -7.3420     2.0890 ha         1 NJ2       0.156000
     45 HAJ        -25.8180    -9.7620     2.4000 h4         1 NJ2       0.023100
     46 HAE        -24.4340   -10.7990     3.9100 h1         1 NJ2       0.036700
     47 HAF        -24.1400   -11.3840     2.2680 h1         1 NJ2       0.036700
     48 HAD        -22.9410   -12.7780     3.9150 hc         1 NJ2       0.050033
     49 HAB        -21.7710   -11.9390     2.8980 hc         1 NJ2       0.050033
     50 HAC        -22.0850   -11.3730     4.5470 hc         1 NJ2       0.050033
     51 HAO        -29.7090    -5.0370    -1.2190 hc         1 NJ2       0.076700
     52 HAS        -31.4670    -4.2110     0.2360 hc         1 NJ2       0.064200
     53 HAT        -30.3130    -4.3100     1.5840 hc         1 NJ2       0.064200
     54 HAP        -28.6680    -2.2760    -1.3340 hc         1 NJ2       0.064200
     55 HAQ        -30.3010    -2.7710    -1.8260 hc         1 NJ2       0.064200
     56 HAR        -29.4310    -2.0630     1.0220 h1         1 NJ2       0.108700
     57 HBN        -32.0000    -1.6320    -0.3900 hn         1 NJ2       0.335500
     58 HBC        -35.2410    -0.5260    -1.9560 ha         1 NJ2       0.156000
     59 HBB        -37.3160     0.7790    -2.2760 h4         1 NJ2       0.024100
     60 HAZ        -36.5810     3.1330     1.0120 h4         1 NJ2       0.024100
     61 HAX        -34.4950     2.7770     2.4170 ha         1 NJ2       0.146000
     62 HAW        -32.4050     1.4740     2.7580 ha         1 NJ2       0.173000
@<TRIPOS>BOND
     1     1     2 1   
     2     2     3 ar  
     3     2     7 ar  
     4     3     4 ar  
     5     3    39 1   
     6     4     5 ar  
     7     4    40 1   
     8     5     6 ar  
     9     5    41 1   
    10     6     7 ar  
    11     6    42 1   
    12     7     8 1   
    13     8     9 1   
    14     8    21 1   
    15     9    10 1   
    16     9    19 2   
    17    10    11 ar  
    18    10    13 ar  
    19    11    12 ar  
    20    11    43 1   
    21    12    15 ar  
    22    12    44 1   
    23    13    14 ar  
    24    14    15 ar  
    25    14    45 1   
    26    15    16 1   
    27    16    17 1   
    28    17    18 1   
    29    17    46 1   
    30    17    47 1   
    31    18    48 1   
    32    18    49 1   
    33    18    50 1   
    34    19    20 1   
    35    20    21 2   
    36    21    22 1   
    37    22    23 1   
    38    22    24 1   
    39    22    51 1   
    40    23    25 1   
    41    23    52 1   
    42    23    53 1   
    43    24    25 1   
    44    24    54 1   
    45    24    55 1   
    46    25    26 1   
    47    25    56 1   
    48    26    27 1   
    49    26    57 1   
    50    27    28 2   
    51    27    29 1   
    52    29    30 ar  
    53    29    38 ar  
    54    30    31 ar  
    55    31    32 ar  
    56    31    36 ar  
    57    32    33 ar  
    58    32    58 1   
    59    33    34 ar  
    60    33    59 1   
    61    34    35 ar  
    62    35    36 ar  
    63    35    60 1   
    64    36    37 ar  
    65    37    38 ar  
    66    37    61 1   
    67    38    62 1   
@<TRIPOS>SUBSTRUCTURE
     1 NJ2         1 TEMP              0 ****  ****    0 ROOT
