@<TRIPOS>MOLECULE
NJ2
   62    67     1     0     0
SMALL
No Charge or Current Charge


@<TRIPOS>ATOM
      1 FBI        -27.9950    -7.6740    -2.0450 f          1 NJ2      -0.162000
      2 CBH        -28.6310    -7.8380    -0.8610 ca         1 NJ2       0.191000
      3 CBJ        -29.4810    -8.9420    -0.6860 ca         1 NJ2      -0.150000
      4 CBK        -30.1520    -9.1260     0.5350 ca         1 NJ2      -0.076000
      5 CBL        -29.9710    -8.2030     1.5790 ca         1 NJ2      -0.123000
      6 CBM        -29.1200    -7.0960     1.4050 ca         1 NJ2      -0.065000
      7 CBG        -28.4450    -6.9070     0.1840 ca         1 NJ2      -0.030200
      8 NBF        -27.6170    -5.7950     0.0160 na         1 NJ2      -0.258800
      9 CAK        -26.2860    -5.6930     0.3740 cc         1 NJ2       0.366500
     10 CAH        -25.4410    -6.6910     1.0910 ca         1 NJ2       0.269000
     11 CAG        -24.0870    -6.3770     1.3670 ca         1 NJ2      -0.073000
     12 CAF        -23.2670    -7.3010     2.0400 ca         1 NJ2      -0.123000
     13 NAI        -25.9650    -7.8940     1.4720 nb         1 NJ2      -0.641000
     14 CAJ        -25.1740    -8.7830     2.1190 ca         1 NJ2       0.251900
     15 CAE        -23.8140    -8.5320     2.4270 ca         1 NJ2       0.111100
     16 OAD        -23.0040    -9.4370     3.0880 os         1 NJ2      -0.339100
     17 CAC        -23.4950   -10.7180     3.5160 c3         1 NJ2       0.163600
     18 CAB        -22.3360   -11.4510     4.2080 c3         1 NJ2      -0.095100
     19 NAL        -25.8710    -4.5050    -0.0580 nd         1 NJ2      -0.357000
     20 NAM        -26.9160    -3.8780    -0.7110 nd         1 NJ2      -0.353000
     21 CAN        -27.9760    -4.6730    -0.6810 cc         1 NJ2       0.406800
     22 CAO        -29.3060    -4.3520    -1.3150 cy         1 NJ2      -0.114000
     23 CAR        -30.6030    -4.2540    -0.4340 cy         1 NJ2      -0.092400
     24 CAP        -29.6750    -2.8870    -1.7500 cy         1 NJ2      -0.092400
     25 CAQ        -30.2800    -2.7300    -0.3180 cy         1 NJ2       0.093700
     26 NAS        -31.3500    -1.7970    -0.1060 ns         1 NJ2      -0.471900
     27 CAT        -31.9250    -1.5280     1.1240 c          1 NJ2       0.505600
     28 OAU        -31.5310    -2.0860     2.1450 o          1 NJ2      -0.590100
     29 CAV        -33.0650    -0.5000     1.1070 ca         1 NJ2       0.329500
     30 NBE        -33.4270     0.0680    -0.0850 nb         1 NJ2      -0.676000
     31 CBD        -34.4300     0.9740    -0.1080 ca         1 NJ2       0.295000
     32 CBC        -34.8210     1.5690    -1.3130 ca         1 NJ2      -0.131000
     33 CBB        -35.8620     2.5050    -1.3160 ca         1 NJ2       0.331900
     34 NBA        -36.5250     2.8740    -0.1970 nb         1 NJ2      -0.660000
     35 CAZ        -36.1520     2.3020     0.9710 ca         1 NJ2       0.372900
     36 CAY        -35.1180     1.3540     1.0620 ca         1 NJ2      -0.138000
     37 CAX        -34.7590     0.7820     2.2940 ca         1 NJ2      -0.050000
     38 CAW        -33.7170    -0.1580     2.3110 ca         1 NJ2      -0.123000
     39 HBJ        -29.6170    -9.6530    -1.4980 ha         1 NJ2       0.136000
     40 HBK        -30.8110    -9.9810     0.6720 ha         1 NJ2       0.121000
     41 HBL        -30.4900    -8.3440     2.5250 ha         1 NJ2       0.124000
     42 HBM        -28.9860    -6.3860     2.2180 ha         1 NJ2       0.132000
     43 HAH        -23.6720    -5.4200     1.0620 ha         1 NJ2       0.151000
     44 HAG        -22.2270    -7.0680     2.2560 ha         1 NJ2       0.138000
     45 HAJ        -25.6550    -9.7200     2.3940 h4         1 NJ2       0.023100
     46 HAE        -24.3270   -10.6000     4.2230 h1         1 NJ2       0.036700
     47 HAF        -23.8420   -11.3090     2.6580 h1         1 NJ2       0.036700
     48 HAD        -22.6630   -12.4380     4.5530 hc         1 NJ2       0.050033
     49 HAB        -21.4980   -11.5900     3.5140 hc         1 NJ2       0.050033
     50 HAC        -21.9820   -10.8820     5.0760 hc         1 NJ2       0.050033
     51 HAO        -29.3820    -5.0800    -2.1300 hc         1 NJ2       0.076700
     52 HAS        -31.5350    -4.4850    -0.9640 hc         1 NJ2       0.064200
     53 HAT        -30.5950    -4.8110     0.5090 hc         1 NJ2       0.064200
     54 HAP        -28.8360    -2.2240    -1.9900 hc         1 NJ2       0.064200
     55 HAQ        -30.4070    -2.8240    -2.5650 hc         1 NJ2       0.064200
     56 HAR        -29.5040    -2.5260     0.4330 h1         1 NJ2       0.108700
     57 HBN        -31.7460    -1.2810    -0.8860 hn         1 NJ2       0.335500
     58 HBC        -34.3230     1.3100    -2.2420 ha         1 NJ2       0.138000
     59 HBB        -36.1790     2.9780    -2.2450 h4         1 NJ2       0.024100
     60 HAZ        -36.7010     2.6150     1.8580 h4         1 NJ2       0.024100
     61 HAX        -35.2730     1.0570     3.2140 ha         1 NJ2       0.128000
     62 HAW        -33.4150    -0.6190     3.2470 ha         1 NJ2       0.155000
@<TRIPOS>BOND
     1     1     2 1   
     2     2     3 ar  
     3     2     7 ar  
     4     3     4 ar  
     5     3    39 1   
     6     4     5 ar  
     7     4    40 1   
     8     5     6 ar  
     9     5    41 1   
    10     6     7 ar  
    11     6    42 1   
    12     7     8 1   
    13     8     9 1   
    14     8    21 1   
    15     9    10 1   
    16     9    19 2   
    17    10    11 ar  
    18    10    13 ar  
    19    11    12 ar  
    20    11    43 1   
    21    12    15 ar  
    22    12    44 1   
    23    13    14 ar  
    24    14    15 ar  
    25    14    45 1   
    26    15    16 1   
    27    16    17 1   
    28    17    18 1   
    29    17    46 1   
    30    17    47 1   
    31    18    48 1   
    32    18    49 1   
    33    18    50 1   
    34    19    20 1   
    35    20    21 2   
    36    21    22 1   
    37    22    23 1   
    38    22    24 1   
    39    22    51 1   
    40    23    25 1   
    41    23    52 1   
    42    23    53 1   
    43    24    25 1   
    44    24    54 1   
    45    24    55 1   
    46    25    26 1   
    47    25    56 1   
    48    26    27 1   
    49    26    57 1   
    50    27    28 2   
    51    27    29 1   
    52    29    30 ar  
    53    29    38 ar  
    54    30    31 ar  
    55    31    32 ar  
    56    31    36 ar  
    57    32    33 ar  
    58    32    58 1   
    59    33    34 ar  
    60    33    59 1   
    61    34    35 ar  
    62    35    36 ar  
    63    35    60 1   
    64    36    37 ar  
    65    37    38 ar  
    66    37    61 1   
    67    38    62 1   
@<TRIPOS>SUBSTRUCTURE
     1 NJ2         1 TEMP              0 ****  ****    0 ROOT
