@<TRIPOS>MOLECULE
NJ3
   68    71     1     0     0
SMALL
No Charge or Current Charge


@<TRIPOS>ATOM
      1 O2         -21.4810    26.2590     3.2510 o          1 NJ3      -0.590100
      2 C17        -21.1270    25.2120     3.7830 c          1 NJ3       0.603100
      3 C18        -21.2930    25.0290     5.3040 c3         1 NJ3       0.036600
      4 N3         -20.5970    24.1490     3.0060 n          1 NJ3      -0.402800
      5 C16        -19.9030    22.9640     3.5800 c6         1 NJ3       0.099500
      6 C15        -18.3920    22.9930     3.2400 c6         1 NJ3      -0.090900
      7 C19        -20.4290    24.2590     1.5330 c6         1 NJ3       0.099500
      8 C20        -18.9280    24.3210     1.1550 c6         1 NJ3      -0.090900
      9 C14        -18.1210    23.0990     1.7000 c6         1 NJ3      -0.038000
     10 C13        -18.5340    21.7970     0.9400 c6         1 NJ3      -0.092900
     11 C12        -17.6350    20.5820     1.2850 c6         1 NJ3       0.099000
     12 C21        -16.6050    23.3330     1.4260 c6         1 NJ3      -0.092900
     13 C22        -15.7380    22.0940     1.7670 c6         1 NJ3       0.099000
     14 N2         -16.1960    20.8750     1.0500 n          1 NJ3      -0.397800
     15 C11        -15.5500    20.4560    -0.1390 c          1 NJ3       0.606100
     16 O1         -14.9410    21.2930    -0.8030 o          1 NJ3      -0.612100
     17 C4         -15.6580    18.9270    -0.6390 c6         1 NJ3       0.191200
     18 C3         -15.8300    17.9160     0.5470 c6         1 NJ3      -0.118400
     19 C23        -14.3380    18.5080    -1.3570 c6         1 NJ3      -0.118400
     20 C24        -13.1400    18.5110    -0.3720 c6         1 NJ3       0.174800
     21 C25        -11.8290    18.0280    -1.0360 c3         1 NJ3      -0.088100
     22 O3         -13.4140    17.6120     0.7210 os         1 NJ3      -0.458000
     23 C2         -14.5920    17.9480     1.4810 c6         1 NJ3       0.174800
     24 C1         -14.6950    16.9200     2.6310 c3         1 NJ3      -0.088100
     25 N1         -16.7930    18.6570    -1.5850 nu         1 NJ3      -0.982200
     26 C5         -17.6390    19.6390    -2.0960 ca         1 NJ3       0.333000
     27 C10        -17.1410    20.6910    -2.8800 ca         1 NJ3      -0.187000
     28 C9         -18.0090    21.6860    -3.3670 ca         1 NJ3      -0.057500
     29 C8         -19.3820    21.6170    -3.0800 ca         1 NJ3       0.065000
     30 Cl2        -20.4690    22.8650    -3.6740 cl         1 NJ3      -0.208000
     31 C7         -19.8900    20.5480    -2.3230 ca         1 NJ3      -0.057500
     32 C6         -19.0160    19.5570    -1.8380 ca         1 NJ3      -0.187000
     33 H1         -22.0310    25.7550     5.6620 h1         1 NJ3       0.086700
     34 H2         -21.6630    24.0200     5.5150 h1         1 NJ3       0.086700
     35 Cl1        -19.7470    25.3010     6.2430 cl         1 NJ3      -0.259000
     36 H4         -20.0180    22.9100     4.6700 h1         1 NJ3       0.054450
     37 H5         -20.3610    22.0510     3.1760 h1         1 NJ3       0.054450
     38 H6         -17.9110    22.1070     3.6730 hc         1 NJ3       0.054700
     39 H7         -17.9410    23.8550     3.7510 hc         1 NJ3       0.054700
     40 H8         -20.9370    25.1530     1.1440 h1         1 NJ3       0.054450
     41 H9         -20.9040    23.3940     1.0510 h1         1 NJ3       0.054450
     42 H10        -18.8300    24.3890     0.0630 hc         1 NJ3       0.054700
     43 H11        -18.5060    25.2520     1.5570 hc         1 NJ3       0.054700
     44 H12        -19.5810    21.5310     1.1300 hc         1 NJ3       0.054700
     45 H13        -18.4650    21.9760    -0.1410 hc         1 NJ3       0.054700
     46 H14        -17.9680    19.7400     0.6690 h1         1 NJ3       0.055450
     47 H15        -17.7780    20.2880     2.3340 h1         1 NJ3       0.055450
     48 H16        -16.4550    23.5810     0.3660 hc         1 NJ3       0.054700
     49 H17        -16.2410    24.2000     1.9940 hc         1 NJ3       0.054700
     50 H18        -15.7700    21.9030     2.8490 h1         1 NJ3       0.055450
     51 H19        -14.6880    22.3040     1.5190 h1         1 NJ3       0.055450
     52 H20        -16.7380    18.0950     1.1310 hc         1 NJ3       0.057950
     53 H21        -15.9390    16.8960     0.1510 hc         1 NJ3       0.057950
     54 H22        -14.1320    19.1810    -2.2000 hc         1 NJ3       0.057950
     55 H23        -14.4460    17.5040    -1.7910 hc         1 NJ3       0.057950
     56 H24        -12.9740    19.5230     0.0280 h1         1 NJ3       0.053200
     57 H25        -11.0010    18.0320    -0.3180 hc         1 NJ3       0.044367
     58 H26        -11.9320    17.0100    -1.4290 hc         1 NJ3       0.044367
     59 H27        -11.5480    18.6830    -1.8690 hc         1 NJ3       0.044367
     60 H28        -14.4650    18.9480     1.9200 h1         1 NJ3       0.053200
     61 H29        -15.5640    17.1290     3.2660 hc         1 NJ3       0.044367
     62 H30        -14.7980    15.8980     2.2470 hc         1 NJ3       0.044367
     63 H31        -13.8040    16.9530     3.2690 hc         1 NJ3       0.044367
     64 H32        -17.2710    17.7680    -1.4380 hn         1 NJ3       0.482000
     65 H33        -16.0820    20.7400    -3.1120 ha         1 NJ3       0.122500
     66 H34        -17.6180    22.5070    -3.9630 ha         1 NJ3       0.127000
     67 H35        -20.9540    20.4900    -2.1080 ha         1 NJ3       0.127000
     68 H36        -19.4110    18.7360    -1.2450 ha         1 NJ3       0.122500
@<TRIPOS>BOND
     1     1     2 2   
     2     2     3 1   
     3     2     4 1   
     4     3    33 1   
     5     3    34 1   
     6     3    35 1   
     7     4     5 1   
     8     4     7 1   
     9     5     6 1   
    10     5    36 1   
    11     5    37 1   
    12     6     9 1   
    13     6    38 1   
    14     6    39 1   
    15     7     8 1   
    16     7    40 1   
    17     7    41 1   
    18     8     9 1   
    19     8    42 1   
    20     8    43 1   
    21     9    10 1   
    22     9    12 1   
    23    10    11 1   
    24    10    44 1   
    25    10    45 1   
    26    11    14 1   
    27    11    46 1   
    28    11    47 1   
    29    12    13 1   
    30    12    48 1   
    31    12    49 1   
    32    13    14 1   
    33    13    50 1   
    34    13    51 1   
    35    14    15 1   
    36    15    16 2   
    37    15    17 1   
    38    17    18 1   
    39    17    19 1   
    40    17    25 1   
    41    18    23 1   
    42    18    52 1   
    43    18    53 1   
    44    19    20 1   
    45    19    54 1   
    46    19    55 1   
    47    20    21 1   
    48    20    22 1   
    49    20    56 1   
    50    21    57 1   
    51    21    58 1   
    52    21    59 1   
    53    22    23 1   
    54    23    24 1   
    55    23    60 1   
    56    24    61 1   
    57    24    62 1   
    58    24    63 1   
    59    25    26 1   
    60    25    64 1   
    61    26    27 ar  
    62    26    32 ar  
    63    27    28 ar  
    64    27    65 1   
    65    28    29 ar  
    66    28    66 1   
    67    29    30 1   
    68    29    31 ar  
    69    31    32 ar  
    70    31    67 1   
    71    32    68 1   
@<TRIPOS>SUBSTRUCTURE
     1 NJ3         1 TEMP              0 ****  ****    0 ROOT
