@<TRIPOS>MOLECULE
NJ3
   68    71     1     0     0
SMALL
abcg2


@<TRIPOS>ATOM
      1 O2         -22.2140    25.7820     2.7700 o          1 NJ3      -0.590100
      2 C17        -21.5320    25.0390     3.4620 c          1 NJ3       0.603100
      3 C18        -21.5260    25.2480     4.9680 c3         1 NJ3       0.036600
      4 N3         -20.7810    24.0420     2.9620 n          1 NJ3      -0.402800
      5 C16        -19.9720    23.1100     3.7280 c6         1 NJ3       0.099500
      6 C15        -18.5060    23.1960     3.3240 c6         1 NJ3      -0.090900
      7 C19        -20.6730    23.8480     1.5240 c6         1 NJ3       0.099500
      8 C20        -19.2220    23.9740     1.0810 c6         1 NJ3      -0.090900
      9 C14        -18.2810    23.0120     1.8140 c6         1 NJ3      -0.038000
     10 C13        -18.5450    21.5660     1.3700 c6         1 NJ3      -0.092900
     11 C12        -17.4660    20.5850     1.8130 c6         1 NJ3       0.099000
     12 C21        -16.8350    23.3660     1.4460 c6         1 NJ3      -0.092900
     13 C22        -15.8230    22.3340     1.9230 c6         1 NJ3       0.099000
     14 N2         -16.1480    21.0230     1.3740 n          1 NJ3      -0.397800
     15 C11        -15.3090    20.4530     0.4820 c          1 NJ3       0.606100
     16 O1         -14.2360    20.9730     0.1980 o          1 NJ3      -0.612100
     17 C4         -15.6820    19.1020    -0.1810 c6         1 NJ3       0.191200
     18 C3         -15.6290    17.9890     0.8830 c6         1 NJ3      -0.118400
     19 C23        -14.6730    18.7160    -1.2820 c6         1 NJ3      -0.118400
     20 C24        -13.3090    18.2350    -0.7940 c6         1 NJ3       0.174800
     21 C25        -12.5060    17.6460    -1.9380 c3         1 NJ3      -0.088100
     22 O3         -13.4450    17.2330     0.1960 os         1 NJ3      -0.458000
     23 C2         -14.2040    17.6550     1.3070 c6         1 NJ3       0.174800
     24 C1         -14.1860    16.5450     2.3390 c3         1 NJ3      -0.088100
     25 N1         -17.0250    19.1430    -0.7220 nu         1 NJ3      -0.982200
     26 C5         -17.5110    20.0230    -1.6530 ca         1 NJ3       0.333000
     27 C10        -16.8180    21.1550    -2.1020 ca         1 NJ3      -0.187000
     28 C9         -17.4080    22.0500    -2.9830 ca         1 NJ3      -0.057500
     29 C8         -18.6930    21.8310    -3.4450 ca         1 NJ3       0.065000
     30 CL2        -19.4300    22.9560    -4.5450 cl         1 NJ3      -0.208000
     31 C7         -19.3920    20.7040    -3.0360 ca         1 NJ3      -0.057500
     32 C6         -18.8080    19.8160    -2.1550 ca         1 NJ3      -0.187000
     33 H1         -22.3060    25.9610     5.2210 h1         1 NJ3       0.086700
     34 H2         -21.6810    24.3360     5.5400 h1         1 NJ3       0.086700
     35 CL1        -19.9620    25.9670     5.4830 cl         1 NJ3      -0.259000
     36 H4         -20.0630    23.2940     4.7940 h1         1 NJ3       0.054450
     37 H5         -20.3610    22.1010     3.5590 h1         1 NJ3       0.054450
     38 H6         -17.9490    22.4590     3.9080 hc         1 NJ3       0.054700
     39 H7         -18.1240    24.1780     3.6210 hc         1 NJ3       0.054700
     40 H8         -21.2910    24.5820     1.0150 h1         1 NJ3       0.054450
     41 H9         -21.0730    22.8610     1.2730 h1         1 NJ3       0.054450
     42 H10        -19.1610    23.8050     0.0020 hc         1 NJ3       0.054700
     43 H11        -18.8910    25.0040     1.2570 hc         1 NJ3       0.054700
     44 H12        -19.5050    21.1960     1.7380 hc         1 NJ3       0.054700
     45 H13        -18.6090    21.5370     0.2780 hc         1 NJ3       0.054700
     46 H14        -17.7050    19.6020     1.4300 h1         1 NJ3       0.055450
     47 H15        -17.4410    20.5030     2.9050 h1         1 NJ3       0.055450
     48 H16        -16.7520    23.4560     0.3570 hc         1 NJ3       0.054700
     49 H17        -16.5780    24.3440     1.8650 hc         1 NJ3       0.054700
     50 H18        -15.8250    22.2600     3.0150 h1         1 NJ3       0.055450
     51 H19        -14.8190    22.6180     1.6250 h1         1 NJ3       0.055450
     52 H20        -16.2120    18.2520     1.7660 hc         1 NJ3       0.057950
     53 H21        -16.0820    17.0850     0.4610 hc         1 NJ3       0.057950
     54 H22        -14.5270    19.5270    -1.9980 hc         1 NJ3       0.057950
     55 H23        -15.1410    17.8950    -1.8350 hc         1 NJ3       0.057950
     56 H24        -12.7520    19.0820    -0.3760 h1         1 NJ3       0.053200
     57 H25        -11.5230    17.3150    -1.6030 hc         1 NJ3       0.044367
     58 H26        -13.0230    16.7950    -2.3860 hc         1 NJ3       0.044367
     59 H27        -12.3570    18.3950    -2.7160 hc         1 NJ3       0.044367
     60 H28        -13.7410    18.5490     1.7540 h1         1 NJ3       0.053200
     61 H29        -14.7310    16.8540     3.2310 hc         1 NJ3       0.044367
     62 H30        -14.6560    15.6380     1.9540 hc         1 NJ3       0.044367
     63 H31        -13.1660    16.3040     2.6370 hc         1 NJ3       0.044367
     64 H32        -17.5540    18.2910    -0.6220 hn         1 NJ3       0.482000
     65 H33        -15.8100    21.3680    -1.7780 ha         1 NJ3       0.122500
     66 H34        -16.8500    22.9180    -3.3060 ha         1 NJ3       0.127000
     67 H35        -20.3950    20.5170    -3.3970 ha         1 NJ3       0.127000
     68 H36        -19.3710    18.9490    -1.8310 ha         1 NJ3       0.122500
@<TRIPOS>BOND
     1     1     2 2   
     2     2     3 1   
     3     2     4 1   
     4     3    33 1   
     5     3    34 1   
     6     3    35 1   
     7     4     5 1   
     8     4     7 1   
     9     5     6 1   
    10     5    36 1   
    11     5    37 1   
    12     6     9 1   
    13     6    38 1   
    14     6    39 1   
    15     7     8 1   
    16     7    40 1   
    17     7    41 1   
    18     8     9 1   
    19     8    42 1   
    20     8    43 1   
    21     9    10 1   
    22     9    12 1   
    23    10    11 1   
    24    10    44 1   
    25    10    45 1   
    26    11    14 1   
    27    11    46 1   
    28    11    47 1   
    29    12    13 1   
    30    12    48 1   
    31    12    49 1   
    32    13    14 1   
    33    13    50 1   
    34    13    51 1   
    35    14    15 1   
    36    15    16 2   
    37    15    17 1   
    38    17    18 1   
    39    17    19 1   
    40    17    25 1   
    41    18    23 1   
    42    18    52 1   
    43    18    53 1   
    44    19    20 1   
    45    19    54 1   
    46    19    55 1   
    47    20    21 1   
    48    20    22 1   
    49    20    56 1   
    50    21    57 1   
    51    21    58 1   
    52    21    59 1   
    53    22    23 1   
    54    23    24 1   
    55    23    60 1   
    56    24    61 1   
    57    24    62 1   
    58    24    63 1   
    59    25    26 1   
    60    25    64 1   
    61    26    27 ar  
    62    26    32 ar  
    63    27    28 ar  
    64    27    65 1   
    65    28    29 ar  
    66    28    66 1   
    67    29    30 1   
    68    29    31 ar  
    69    31    32 ar  
    70    31    67 1   
    71    32    68 1   
@<TRIPOS>SUBSTRUCTURE
     1 NJ3         1 TEMP              0 ****  ****    0 ROOT
