@<TRIPOS>MOLECULE
NJ4
   80    83     1     0     0
SMALL
No Charge or Current Charge


@<TRIPOS>ATOM
      1 C13         73.6570    55.2870    15.5710 c3         1 NJ4      -0.091600
      2 C15         70.1490    56.4560    14.5230 c3         1 NJ4       0.212800
      3 C20         72.8200    59.2350    17.3380 c          1 NJ4       0.635100
      4 C24         75.5090    61.5970    18.0360 c5         1 NJ4       0.152600
      5 C26         74.0690    60.9360    19.8830 c5         1 NJ4      -0.141700
      6 C28         72.5070    60.9910    20.0700 c5         1 NJ4      -0.094400
      7 C01         66.7120    52.8730    12.6430 ca         1 NJ4      -0.073300
      8 C02         66.4330    54.1510    13.1710 ca         1 NJ4      -0.119000
      9 C03         67.1840    54.6640    14.2420 ca         1 NJ4      -0.017000
     10 C04         68.2320    53.9020    14.7980 ca         1 NJ4      -0.310500
     11 C05         68.5110    52.6210    14.2800 ca         1 NJ4      -0.017000
     12 C06         67.7570    52.1150    13.2080 ca         1 NJ4      -0.119000
     13 C11         71.4340    54.3210    14.7090 c3         1 NJ4       0.204800
     14 C12         72.8470    54.8410    14.3290 c3         1 NJ4      -0.063700
     15 C14         73.6270    53.7800    13.5210 c3         1 NJ4      -0.091600
     16 C16         70.9770    57.7560    14.7650 c3         1 NJ4       0.155300
     17 C18         70.7560    58.3880    16.1760 c3         1 NJ4       0.098700
     18 C23         74.5410    60.4550    18.4490 c5         1 NJ4       0.160300
     19 C27         74.4800    62.4470    19.9210 c5         1 NJ4       0.368300
     20 C29         72.1880    62.4270    19.6000 c5         1 NJ4       0.151600
     21 C31         69.3420    58.9850    16.4180 c3         1 NJ4      -0.039100
     22 C32         69.1760    59.5680    17.8200 ca         1 NJ4      -0.085300
     23 C33         68.9520    60.9480    17.9990 ca         1 NJ4      -0.101000
     24 C34         68.8000    61.4810    19.2910 ca         1 NJ4      -0.115500
     25 C35         68.8780    60.6400    20.4130 ca         1 NJ4      -0.115000
     26 C36         69.1010    59.2640    20.2420 ca         1 NJ4      -0.115500
     27 C37         69.2470    58.7290    18.9510 ca         1 NJ4      -0.101000
     28 C38         64.4060    52.1390    11.8280 c3         1 NJ4      -0.085100
     29 C40         65.8970    52.3080    11.4790 c3         1 NJ4       0.209600
     30 N10         70.5290    55.2940    15.3830 n3         1 NJ4      -0.744500
     31 N19         71.7800    59.4040    16.4700 ns         1 NJ4      -0.502900
     32 O08         68.4690    55.6350    16.8350 o          1 NJ4      -0.541500
     33 O09         69.7560    53.4440    16.9560 o          1 NJ4      -0.541500
     34 O17         70.6940    58.7190    13.7280 oh         1 NJ4      -0.672000
     35 O21         73.0840    58.1980    17.9240 o          1 NJ4      -0.539000
     36 O22         73.4610    60.4340    17.4700 os         1 NJ4      -0.459100
     37 O25         74.9090    62.7800    18.5900 os         1 NJ4      -0.467000
     38 O30         73.2670    63.1770    20.1850 os         1 NJ4      -0.447000
     39 O39         66.0170    53.1650    10.3400 oh         1 NJ4      -0.658000
     40 S07         69.2040    54.5540    16.1710 sy         1 NJ4       1.187600
     41 H132        73.1140    56.0440    16.1480 hc         1 NJ4       0.041033
     42 H133        73.8510    54.4360    16.2340 hc         1 NJ4       0.041033
     43 H131        74.6200    55.7170    15.2720 hc         1 NJ4       0.041033
     44 H152        69.0930    56.7230    14.6500 h1         1 NJ4       0.064200
     45 H151        70.2470    56.1800    13.4640 h1         1 NJ4       0.064200
     46 H241        76.5060    61.4570    18.4760 h1         1 NJ4       0.062200
     47 H261        74.5610    60.3650    20.6780 hc         1 NJ4       0.077700
     48 H281        72.2440    60.8820    21.1280 hc         1 NJ4       0.066700
     49 H282        71.9370    60.2230    19.5410 hc         1 NJ4       0.066700
     50 H021        65.6320    54.7530    12.7480 ha         1 NJ4       0.126000
     51 H031        66.9450    55.6510    14.6350 ha         1 NJ4       0.134500
     52 H051        69.3110    52.0150    14.7010 ha         1 NJ4       0.134500
     53 H061        67.9870    51.1250    12.8180 ha         1 NJ4       0.126000
     54 H111        70.9500    53.9470    13.7970 h1         1 NJ4       0.050700
     55 H112        71.5990    53.4470    15.3520 h1         1 NJ4       0.050700
     56 H121        72.7310    55.7050    13.6650 hc         1 NJ4       0.046700
     57 H142        74.6070    54.1670    13.2170 hc         1 NJ4       0.041033
     58 H143        73.7870    52.8720    14.1170 hc         1 NJ4       0.041033
     59 H141        73.0780    53.5010    12.6140 hc         1 NJ4       0.041033
     60 H161        72.0360    57.4840    14.7060 h1         1 NJ4       0.054700
     61 H181        70.8830    57.5710    16.8990 h1         1 NJ4       0.100700
     62 H231        75.0740    59.4940    18.4660 h1         1 NJ4       0.088700
     63 H271        75.2630    62.6640    20.6600 h2         1 NJ4       0.082700
     64 H291        71.2240    62.7980    19.9710 h1         1 NJ4       0.056700
     65 H292        72.2150    62.5290    18.5060 h1         1 NJ4       0.056700
     66 H312        69.1420    59.7560    15.6650 hc         1 NJ4       0.065700
     67 H311        68.5820    58.2130    16.2620 hc         1 NJ4       0.065700
     68 H331        68.8940    61.6100    17.1380 ha         1 NJ4       0.121000
     69 H341        68.6250    62.5470    19.4210 ha         1 NJ4       0.112500
     70 H351        68.7640    61.0540    21.4130 ha         1 NJ4       0.111000
     71 H361        69.1590    58.6110    21.1100 ha         1 NJ4       0.112500
     72 H371        69.4140    57.6610    18.8280 ha         1 NJ4       0.121000
     73 H382        64.2920    51.4900    12.7040 hc         1 NJ4       0.050033
     74 H381        63.9380    53.1050    12.0520 hc         1 NJ4       0.050033
     75 H383        63.8660    51.6810    10.9920 hc         1 NJ4       0.050033
     76 H401        66.2930    51.3140    11.2280 h1         1 NJ4       0.038700
     77 H191        71.6610    60.3410    16.1110 hn         1 NJ4       0.322500
     78 H171        71.3870    59.4120    13.7830 ho         1 NJ4       0.450000
     79 H391        66.9770    53.3330    10.2200 ho         1 NJ4       0.444000
     80 H242        75.6140    61.6970    16.9470 h1         1 NJ4       0.062200
@<TRIPOS>BOND
     1     1    14 1   
     2     1    41 1   
     3     1    42 1   
     4     1    43 1   
     5     2    16 1   
     6     2    30 1   
     7     2    44 1   
     8     2    45 1   
     9     3    31 1   
    10     3    35 2   
    11     3    36 1   
    12     4    18 1   
    13     4    37 1   
    14     4    46 1   
    15     4    80 1   
    16     5     6 1   
    17     5    18 1   
    18     5    19 1   
    19     5    47 1   
    20     6    20 1   
    21     6    48 1   
    22     6    49 1   
    23     7     8 ar  
    24     7    12 ar  
    25     7    29 1   
    26     8     9 ar  
    27     8    50 1   
    28     9    10 ar  
    29     9    51 1   
    30    10    11 ar  
    31    10    40 1   
    32    11    12 ar  
    33    11    52 1   
    34    12    53 1   
    35    13    14 1   
    36    13    30 1   
    37    13    54 1   
    38    13    55 1   
    39    14    15 1   
    40    14    56 1   
    41    15    57 1   
    42    15    58 1   
    43    15    59 1   
    44    16    17 1   
    45    16    34 1   
    46    16    60 1   
    47    17    21 1   
    48    17    31 1   
    49    17    61 1   
    50    18    36 1   
    51    18    62 1   
    52    19    37 1   
    53    19    38 1   
    54    19    63 1   
    55    20    38 1   
    56    20    64 1   
    57    20    65 1   
    58    21    22 1   
    59    21    66 1   
    60    21    67 1   
    61    22    23 ar  
    62    22    27 ar  
    63    23    24 ar  
    64    23    68 1   
    65    24    25 ar  
    66    24    69 1   
    67    25    26 ar  
    68    25    70 1   
    69    26    27 ar  
    70    26    71 1   
    71    27    72 1   
    72    28    29 1   
    73    28    73 1   
    74    28    74 1   
    75    28    75 1   
    76    29    39 1   
    77    29    76 1   
    78    30    40 1   
    79    31    77 1   
    80    32    40 2   
    81    33    40 2   
    82    34    78 1   
    83    39    79 1   
@<TRIPOS>SUBSTRUCTURE
     1 NJ4         1 TEMP              0 ****  ****    0 ROOT
