@<TRIPOS>MOLECULE
NJ4
   80    83     1     0     0
SMALL
abcg2


@<TRIPOS>ATOM
      1 C13         73.4740    55.4260    15.5720 c3         1 NJ4      -0.091600
      2 C15         70.2030    56.8890    14.1230 c3         1 NJ4       0.212800
      3 C20         72.6970    59.1560    17.3970 c          1 NJ4       0.635100
      4 C24         75.6570    60.9200    18.4560 c5         1 NJ4       0.152600
      5 C26         73.9130    60.6420    20.0620 c5         1 NJ4      -0.141700
      6 C28         72.4020    60.8970    20.1480 c5         1 NJ4      -0.094400
      7 C01         66.7270    52.7430    12.8800 ca         1 NJ4      -0.073300
      8 C02         66.4510    54.0800    13.1670 ca         1 NJ4      -0.119000
      9 C03         67.2190    54.7810    14.0860 ca         1 NJ4      -0.017000
     10 C04         68.2700    54.1330    14.7320 ca         1 NJ4      -0.310500
     11 C05         68.5570    52.7980    14.4620 ca         1 NJ4      -0.017000
     12 C06         67.7840    52.1130    13.5360 ca         1 NJ4      -0.119000
     13 C11         71.4260    54.7150    14.2700 c3         1 NJ4       0.204800
     14 C12         72.8800    55.1790    14.1870 c3         1 NJ4      -0.063700
     15 C14         73.6830    54.1320    13.4150 c3         1 NJ4      -0.091600
     16 C16         71.0450    58.1000    14.5280 c3         1 NJ4       0.155300
     17 C18         70.7810    58.5930    15.9600 c3         1 NJ4       0.098700
     18 C23         74.4560    60.0410    18.7500 c5         1 NJ4       0.160300
     19 C27         74.5180    62.0700    20.1070 c5         1 NJ4       0.368300
     20 C29         72.2680    62.3300    19.6480 c5         1 NJ4       0.151600
     21 C31         69.4280    59.2930    16.1370 c3         1 NJ4      -0.039100
     22 C32         69.1830    59.7160    17.5640 ca         1 NJ4      -0.085300
     23 C33         69.1330    61.0660    17.9090 ca         1 NJ4      -0.101000
     24 C34         68.9100    61.4620    19.2250 ca         1 NJ4      -0.115500
     25 C35         68.7440    60.5070    20.2210 ca         1 NJ4      -0.115000
     26 C36         68.7990    59.1560    19.8900 ca         1 NJ4      -0.115500
     27 C37         69.0140    58.7650    18.5740 ca         1 NJ4      -0.101000
     28 C38         64.6490    51.3690    12.5960 c3         1 NJ4      -0.085100
     29 C40         65.8720    51.9570    11.9070 c3         1 NJ4       0.209600
     30 N10         70.5200    55.6890    14.9130 n3         1 NJ4      -0.744500
     31 N19         71.8590    59.4710    16.3920 ns         1 NJ4      -0.502900
     32 O08         68.5550    56.1530    16.3650 o          1 NJ4      -0.541500
     33 O09         69.9240    54.1080    16.7460 o          1 NJ4      -0.541500
     34 O17         70.7720    59.0950    13.5400 oh         1 NJ4      -0.672000
     35 O21         72.7270    58.0930    17.9970 o          1 NJ4      -0.539000
     36 O22         73.5310    60.1940    17.6560 os         1 NJ4      -0.459100
     37 O25         75.2940    62.2230    18.9150 os         1 NJ4      -0.467000
     38 O30         73.4610    62.9880    20.1270 os         1 NJ4      -0.447000
     39 O39         65.3940    52.7660    10.8280 oh         1 NJ4      -0.658000
     40 S07         69.3150    55.0470    15.8320 sy         1 NJ4       1.187600
     41 H132        72.9070    56.1700    16.1310 hc         1 NJ4       0.041033
     42 H133        73.4780    54.5000    16.1540 hc         1 NJ4       0.041033
     43 H131        74.5050    55.7770    15.4900 hc         1 NJ4       0.041033
     44 H152        69.1470    57.1330    14.2140 h1         1 NJ4       0.064200
     45 H151        70.3990    56.6740    13.0720 h1         1 NJ4       0.064200
     46 H241        76.5310    60.5480    19.0040 h1         1 NJ4       0.062200
     47 H261        74.2710    60.0400    20.8950 hc         1 NJ4       0.077700
     48 H281        72.0810    60.8340    21.1880 hc         1 NJ4       0.066700
     49 H282        71.8040    60.1940    19.5730 hc         1 NJ4       0.066700
     50 H021        65.6330    54.5770    12.6630 ha         1 NJ4       0.126000
     51 H031        66.9970    55.8140    14.3100 ha         1 NJ4       0.134500
     52 H051        69.3710    52.3000    14.9690 ha         1 NJ4       0.134500
     53 H061        68.0060    51.0750    13.3190 ha         1 NJ4       0.126000
     54 H111        71.0490    54.4930    13.2660 h1         1 NJ4       0.050700
     55 H112        71.3950    53.7960    14.8520 h1         1 NJ4       0.050700
     56 H121        72.9170    56.1100    13.6140 hc         1 NJ4       0.046700
     57 H142        74.7220    54.4490    13.3050 hc         1 NJ4       0.041033
     58 H143        73.6780    53.1740    13.9430 hc         1 NJ4       0.041033
     59 H141        73.2710    53.9710    12.4160 hc         1 NJ4       0.041033
     60 H161        72.1000    57.8240    14.4820 h1         1 NJ4       0.054700
     61 H181        70.8270    57.7220    16.6100 h1         1 NJ4       0.100700
     62 H231        74.7110    58.9910    18.8470 h1         1 NJ4       0.088700
     63 H271        75.1520    62.2750    20.9720 h2         1 NJ4       0.082700
     64 H291        71.4150    62.8650    20.0580 h1         1 NJ4       0.056700
     65 H292        72.2290    62.3720    18.5560 h1         1 NJ4       0.056700
     66 H312        69.3910    60.1660    15.4850 hc         1 NJ4       0.065700
     67 H311        68.6440    58.6090    15.8140 hc         1 NJ4       0.065700
     68 H331        69.2720    61.8160    17.1390 ha         1 NJ4       0.121000
     69 H341        68.8760    62.5160    19.4720 ha         1 NJ4       0.112500
     70 H351        68.5780    60.8120    21.2470 ha         1 NJ4       0.111000
     71 H361        68.6730    58.4040    20.6600 ha         1 NJ4       0.112500
     72 H371        69.0490    57.7130    18.3210 ha         1 NJ4       0.121000
     73 H382        64.9530    50.7160    13.4140 hc         1 NJ4       0.050033
     74 H381        64.0250    52.1680    13.0010 hc         1 NJ4       0.050033
     75 H383        64.0620    50.7880    11.8820 hc         1 NJ4       0.050033
     76 H401        66.4810    51.1390    11.5070 h1         1 NJ4       0.038700
     77 H191        71.8830    60.4200    16.0510 hn         1 NJ4       0.322500
     78 H171        71.4380    59.7910    13.6040 ho         1 NJ4       0.450000
     79 H391        66.1550    53.1210    10.3510 ho         1 NJ4       0.444000
     80 H242        75.8940    60.9770    17.3950 h1         1 NJ4       0.062200
@<TRIPOS>BOND
     1     1    14 1   
     2     1    41 1   
     3     1    42 1   
     4     1    43 1   
     5     2    16 1   
     6     2    30 1   
     7     2    44 1   
     8     2    45 1   
     9     3    31 1   
    10     3    35 2   
    11     3    36 1   
    12     4    18 1   
    13     4    37 1   
    14     4    46 1   
    15     4    80 1   
    16     5     6 1   
    17     5    18 1   
    18     5    19 1   
    19     5    47 1   
    20     6    20 1   
    21     6    48 1   
    22     6    49 1   
    23     7     8 ar  
    24     7    12 ar  
    25     7    29 1   
    26     8     9 ar  
    27     8    50 1   
    28     9    10 ar  
    29     9    51 1   
    30    10    11 ar  
    31    10    40 1   
    32    11    12 ar  
    33    11    52 1   
    34    12    53 1   
    35    13    14 1   
    36    13    30 1   
    37    13    54 1   
    38    13    55 1   
    39    14    15 1   
    40    14    56 1   
    41    15    57 1   
    42    15    58 1   
    43    15    59 1   
    44    16    17 1   
    45    16    34 1   
    46    16    60 1   
    47    17    21 1   
    48    17    31 1   
    49    17    61 1   
    50    18    36 1   
    51    18    62 1   
    52    19    37 1   
    53    19    38 1   
    54    19    63 1   
    55    20    38 1   
    56    20    64 1   
    57    20    65 1   
    58    21    22 1   
    59    21    66 1   
    60    21    67 1   
    61    22    23 ar  
    62    22    27 ar  
    63    23    24 ar  
    64    23    68 1   
    65    24    25 ar  
    66    24    69 1   
    67    25    26 ar  
    68    25    70 1   
    69    26    27 ar  
    70    26    71 1   
    71    27    72 1   
    72    28    29 1   
    73    28    73 1   
    74    28    74 1   
    75    28    75 1   
    76    29    39 1   
    77    29    76 1   
    78    30    40 1   
    79    31    77 1   
    80    32    40 2   
    81    33    40 2   
    82    34    78 1   
    83    39    79 1   
@<TRIPOS>SUBSTRUCTURE
     1 NJ4         1 TEMP              0 ****  ****    0 ROOT
