@<TRIPOS>MOLECULE
NJ5
   89    91     1     0     0
SMALL
abcg2


@<TRIPOS>ATOM
      1 C11          2.7060    -6.9330    -2.1980 c3         1 NJ5      -0.094100
      2 C12          3.2360    -6.2170    -0.9640 c3         1 NJ5      -0.059400
      3 C13          3.4890    -4.7410    -1.2340 c3         1 NJ5      -0.171400
      4 C14          3.8280    -3.9380     0.0060 c          1 NJ5       0.611100
      5 O1           3.2770    -4.1590     1.0790 o          1 NJ5      -0.629100
      6 N2           4.7440    -2.9740    -0.1720 ns         1 NJ5      -0.486900
      7 C15          5.0530    -1.9450     0.7990 c3         1 NJ5       0.101000
      8 C16          4.9450    -0.5510     0.1940 c3         1 NJ5      -0.092400
      9 C17          4.9710     0.5410     1.2600 c3         1 NJ5      -0.061400
     10 C18          4.4190     1.8630     0.7390 c3         1 NJ5      -0.080400
     11 C19          4.1510     2.8700     1.8630 c3         1 NJ5      -0.165400
     12 C20          3.4140     4.0720     1.3160 c          1 NJ5       0.615100
     13 O2           3.9980     5.0040     0.7760 o          1 NJ5      -0.671100
     14 N3           2.0720     4.0080     1.4310 ns         1 NJ5      -0.477900
     15 C21          1.1630     4.9400     0.8170 c6         1 NJ5       0.069700
     16 C22          0.4490     4.3170    -0.3920 c6         1 NJ5       0.440300
     17 O3          -0.3270     3.2170    -0.0140 os         1 NJ5      -0.618400
     18 P1           0.0960     1.6310    -0.2390 p5         1 NJ5       1.476800
     19 O4           1.2830     1.5630    -1.1410 o          1 NJ5      -0.834000
     20 O5          -1.1710     0.8990    -0.5210 o          1 NJ5      -0.834000
     21 O6           0.5130     1.3790     1.3390 os         1 NJ5      -0.719800
     22 P2           1.1590     0.0700     2.0710 p5         1 NJ5       1.477800
     23 O7           1.9940    -0.7410     1.1360 o          1 NJ5      -0.861000
     24 O8           1.7050     0.5700     3.3740 o          1 NJ5      -0.861000
     25 O9          -0.2440    -0.7500     2.3600 os         1 NJ5      -0.571400
     26 C23         -0.1630    -2.1470     2.5280 c3         1 NJ5       0.208600
     27 C24         -1.2740    -2.8450     1.7630 c5         1 NJ5       0.157300
     28 O10         -1.2890    -2.4620     0.3840 os         1 NJ5      -0.390000
     29 C25         -0.9650    -3.5500    -0.4280 c5         1 NJ5       0.344700
     30 N4          -0.1490    -3.0930    -1.5490 n          1 NJ5      -0.303000
     31 C26          0.8000    -2.1250    -1.3710 cc         1 NJ5       0.036600
     32 C27          1.5830    -1.6820    -2.3710 cd         1 NJ5      -0.393200
     33 C28          1.4540    -2.2390    -3.6890 c          1 NJ5       0.589200
     34 O11          2.1080    -1.9360    -4.6730 o          1 NJ5      -0.585000
     35 N5           0.4750    -3.2210    -3.7780 ns         1 NJ5      -0.478500
     36 C29         -0.3600    -3.6700    -2.7850 c          1 NJ5       0.619000
     37 O12         -1.2090    -4.5110    -2.9980 o          1 NJ5      -0.602000
     38 C30         -0.2640    -4.5490     0.4870 c5         1 NJ5       0.058300
     39 O13         -0.3300    -5.8350    -0.0590 oh         1 NJ5      -0.711000
     40 C31         -1.0700    -4.3560     1.7760 c5         1 NJ5       0.096300
     41 O14         -2.3210    -4.9890     1.6890 oh         1 NJ5      -0.719000
     42 O15         -0.3770     5.2640    -0.9950 os         1 NJ5      -0.460000
     43 C32         -1.4010     5.7900    -0.1660 c6         1 NJ5       0.157300
     44 C33         -2.1870     6.7810    -0.9970 c3         1 NJ5       0.167600
     45 O16         -2.8140     6.0960    -2.0550 oh         1 NJ5      -0.683000
     46 C34         -0.7910     6.4490     1.0750 c6         1 NJ5       0.100300
     47 O17         -1.7920     6.8420     1.9910 oh         1 NJ5      -0.728000
     48 C35          0.1370     5.4810     1.8030 c6         1 NJ5       0.160300
     49 O18          0.8200     6.1170     2.8530 oh         1 NJ5      -0.655000
     50 H1           2.5230    -7.9890    -1.9960 hc         1 NJ5       0.030367
     51 H2           1.7640    -6.4930    -2.5320 hc         1 NJ5       0.030367
     52 H3           3.4120    -6.8730    -3.0280 hc         1 NJ5       0.030367
     53 H12          2.5200    -6.3190    -0.1470 hc         1 NJ5       0.037700
     54 H11          4.1590    -6.6940    -0.6230 hc         1 NJ5       0.037700
     55 H14          4.2590    -4.6230    -2.0010 hc         1 NJ5       0.060700
     56 H13          2.5800    -4.2940    -1.6520 hc         1 NJ5       0.060700
     57 H15          5.1510    -2.8780    -1.0890 hn         1 NJ5       0.295500
     58 H17          4.3280    -2.0300     1.6050 h1         1 NJ5       0.053200
     59 H16          6.0480    -2.1120     1.2250 h1         1 NJ5       0.053200
     60 H19          5.7370    -0.3920    -0.5460 hc         1 NJ5       0.055700
     61 H18          3.9890    -0.4960    -0.3260 hc         1 NJ5       0.055700
     62 H21          4.3420     0.2180     2.0920 hc         1 NJ5       0.036200
     63 H20          5.9820     0.6740     1.6590 hc         1 NJ5       0.036200
     64 H23          5.1020     2.3040     0.0070 hc         1 NJ5       0.065700
     65 H22          3.4810     1.6590     0.2180 hc         1 NJ5       0.065700
     66 H24          3.5680     2.3770     2.6440 hc         1 NJ5       0.065200
     67 H25          5.0890     3.2050     2.3110 hc         1 NJ5       0.065200
     68 H26          1.6750     3.1720     1.8350 hn         1 NJ5       0.365500
     69 H27          1.7580     5.7760     0.4420 h1         1 NJ5       0.070700
     70 H28          1.1920     4.0340    -1.1430 h2         1 NJ5       0.097700
     71 H29          0.8100    -2.5330     2.2060 h1         1 NJ5       0.022200
     72 H30         -0.2810    -2.4090     3.5860 h1         1 NJ5       0.022200
     73 H31         -2.2420    -2.5780     2.1980 h1         1 NJ5       0.087700
     74 H32         -1.8590    -4.0070    -0.8610 h2         1 NJ5       0.093700
     75 H33          0.9240    -1.7190    -0.3740 h4         1 NJ5       0.293000
     76 H34          2.2910    -0.8910    -2.1810 ha         1 NJ5       0.260000
     77 H35          0.3350    -3.6480    -4.6850 hn         1 NJ5       0.311500
     78 H36          0.7760    -4.2360     0.6530 h1         1 NJ5       0.096700
     79 H37          0.3100    -6.3960     0.3900 ho         1 NJ5       0.498000
     80 H38         -0.5130    -4.6860     2.6640 h1         1 NJ5       0.047700
     81 H39         -2.1810    -5.8830     1.3550 ho         1 NJ5       0.502000
     82 H40         -2.0820     4.9930     0.1610 h1         1 NJ5       0.096700
     83 H41         -2.9230     7.2690    -0.3470 h1         1 NJ5       0.001200
     84 H42         -1.5090     7.5640    -1.3630 h1         1 NJ5       0.001200
     85 H43         -3.3630     6.7230    -2.5330 ho         1 NJ5       0.475000
     86 H44         -0.1920     7.3140     0.7550 h1         1 NJ5       0.028700
     87 H45         -2.0380     7.7550     1.8190 ho         1 NJ5       0.483000
     88 H46         -0.4700     4.6450     2.1840 h1         1 NJ5       0.087700
     89 H47          0.1590     6.4540     3.4670 ho         1 NJ5       0.431000
@<TRIPOS>BOND
     1     1     2 1   
     2     1    50 1   
     3     1    51 1   
     4     1    52 1   
     5     2     3 1   
     6     2    53 1   
     7     2    54 1   
     8     3     4 1   
     9     3    55 1   
    10     3    56 1   
    11     4     5 2   
    12     4     6 1   
    13     6     7 1   
    14     6    57 1   
    15     7     8 1   
    16     7    58 1   
    17     7    59 1   
    18     8     9 1   
    19     8    60 1   
    20     8    61 1   
    21     9    10 1   
    22     9    62 1   
    23     9    63 1   
    24    10    11 1   
    25    10    64 1   
    26    10    65 1   
    27    11    12 1   
    28    11    66 1   
    29    11    67 1   
    30    12    13 2   
    31    12    14 1   
    32    14    15 1   
    33    14    68 1   
    34    15    16 1   
    35    15    48 1   
    36    15    69 1   
    37    16    17 1   
    38    16    42 1   
    39    16    70 1   
    40    17    18 1   
    41    18    19 1   
    42    18    20 1   
    43    18    21 1   
    44    21    22 1   
    45    22    23 1   
    46    22    24 1   
    47    22    25 1   
    48    25    26 1   
    49    26    27 1   
    50    26    71 1   
    51    26    72 1   
    52    27    28 1   
    53    27    40 1   
    54    27    73 1   
    55    28    29 1   
    56    29    30 1   
    57    29    38 1   
    58    29    74 1   
    59    30    31 1   
    60    30    36 1   
    61    31    32 2   
    62    31    75 1   
    63    32    33 1   
    64    32    76 1   
    65    33    34 2   
    66    33    35 1   
    67    35    36 1   
    68    35    77 1   
    69    36    37 2   
    70    38    39 1   
    71    38    40 1   
    72    38    78 1   
    73    39    79 1   
    74    40    41 1   
    75    40    80 1   
    76    41    81 1   
    77    42    43 1   
    78    43    44 1   
    79    43    46 1   
    80    43    82 1   
    81    44    45 1   
    82    44    83 1   
    83    44    84 1   
    84    45    85 1   
    85    46    47 1   
    86    46    48 1   
    87    46    86 1   
    88    47    87 1   
    89    48    49 1   
    90    48    88 1   
    91    49    89 1   
@<TRIPOS>SUBSTRUCTURE
     1 NJ5         1 TEMP              0 ****  ****    0 ROOT
