@<TRIPOS>MOLECULE
NJ5
   89    91     1     0     0
SMALL
No Charge or Current Charge


@<TRIPOS>ATOM
      1 C11          4.2100    -7.5200    -3.0740 c3         1 NJ5      -0.094100
      2 C12          4.0960    -6.5960    -1.8470 c3         1 NJ5      -0.059400
      3 C13          4.2030    -5.0970    -2.2070 c3         1 NJ5      -0.171400
      4 C14          4.0750    -4.2080    -0.9690 c          1 NJ5       0.611100
      5 O1           3.0180    -4.0690    -0.3690 o          1 NJ5      -0.629100
      6 N2           5.2250    -3.5530    -0.5910 ns         1 NJ5      -0.486900
      7 C15          5.3070    -2.6080     0.5240 c3         1 NJ5       0.101000
      8 C16          4.8650    -1.1890     0.1110 c3         1 NJ5      -0.092400
      9 C17          4.6400    -0.2620     1.3230 c3         1 NJ5      -0.061400
     10 C18          4.2110     1.1730     0.9350 c3         1 NJ5      -0.080400
     11 C19          3.5950     1.9430     2.1280 c3         1 NJ5      -0.165400
     12 C20          2.9970     3.2950     1.7240 c          1 NJ5       0.615100
     13 O2           3.6700     4.3150     1.6460 o          1 NJ5      -0.671100
     14 N3           1.6350     3.3080     1.5440 ns         1 NJ5      -0.477900
     15 C21          0.8040     4.5290     1.4060 c6         1 NJ5       0.069700
     16 C22          0.8340     5.2470     0.0050 c6         1 NJ5       0.440300
     17 O3           0.1410     4.6100    -1.0800 os         1 NJ5      -0.618400
     18 P1           0.5990     3.1810    -1.6460 p5         1 NJ5       1.476800
     19 O4           2.0620     3.0030    -1.4260 o          1 NJ5      -0.834000
     20 O5           0.2190     3.0920    -3.0870 o          1 NJ5      -0.834000
     21 O6          -0.3640     2.3240    -0.7450 os         1 NJ5      -0.719800
     22 P2           0.1340     0.8500    -0.5510 p5         1 NJ5       1.477800
     23 O7           0.7820     0.2230    -1.7380 o          1 NJ5      -0.861000
     24 O8           0.9320     0.7360     0.6970 o          1 NJ5      -0.861000
     25 O9          -1.3130     0.1740    -0.3560 os         1 NJ5      -0.571400
     26 C23         -1.8910    -0.0020     0.9500 c3         1 NJ5       0.208600
     27 C24         -1.6810    -1.4630     1.4750 c5         1 NJ5       0.157300
     28 O10         -1.7720    -2.4150     0.3750 os         1 NJ5      -0.390000
     29 C25         -0.7200    -3.3780     0.5370 c5         1 NJ5       0.344700
     30 N4          -0.3350    -3.9770    -0.7670 n          1 NJ5      -0.303000
     31 C26         -0.0450    -3.1620    -1.8650 cc         1 NJ5       0.036600
     32 C27          0.3650    -3.7500    -3.0410 cd         1 NJ5      -0.393200
     33 C28          0.5120    -5.1980    -3.1720 c          1 NJ5       0.589200
     34 O11          0.8610    -5.7570    -4.1960 o          1 NJ5      -0.585000
     35 N5           0.2160    -5.8770    -2.0360 ns         1 NJ5      -0.478500
     36 C29         -0.1900    -5.3750    -0.8380 c          1 NJ5       0.619000
     37 O12         -0.4170    -6.1270     0.0970 o          1 NJ5      -0.602000
     38 C30          0.4740    -2.5530     1.1120 c5         1 NJ5       0.058300
     39 O13          1.5300    -3.3480     1.6920 oh         1 NJ5      -0.711000
     40 C31         -0.3090    -1.7620     2.2000 c5         1 NJ5       0.096300
     41 O14         -0.4570    -2.6100     3.3430 oh         1 NJ5      -0.719000
     42 O15          0.2160     6.5430     0.1720 os         1 NJ5      -0.460000
     43 C32         -1.1900     6.5020     0.5600 c6         1 NJ5       0.157300
     44 C33         -1.7220     7.9740     0.6210 c3         1 NJ5       0.167600
     45 O16         -1.5330     8.7050    -0.6030 oh         1 NJ5      -0.683000
     46 C34         -1.3610     5.7480     1.9230 c6         1 NJ5       0.100300
     47 O17         -2.7480     5.5960     2.2970 oh         1 NJ5      -0.728000
     48 C35         -0.6780     4.3480     1.8410 c6         1 NJ5       0.160300
     49 O18         -0.7800     3.6910     3.1170 oh         1 NJ5      -0.655000
     50 H1           4.1270    -8.5700    -2.7700 hc         1 NJ5       0.030367
     51 H2           3.4120    -7.3080    -3.7950 hc         1 NJ5       0.030367
     52 H3           5.1760    -7.3830    -3.5740 hc         1 NJ5       0.030367
     53 H12          3.1370    -6.7830    -1.3470 hc         1 NJ5       0.037700
     54 H11          4.8850    -6.8540    -1.1290 hc         1 NJ5       0.037700
     55 H14          5.1670    -4.9180    -2.6990 hc         1 NJ5       0.060700
     56 H13          3.3910    -4.8450    -2.8980 hc         1 NJ5       0.060700
     57 H15          6.0550    -3.7250    -1.1450 hn         1 NJ5       0.295500
     58 H17          4.6680    -2.9700     1.3400 h1         1 NJ5       0.053200
     59 H16          6.3400    -2.5800     0.8940 h1         1 NJ5       0.053200
     60 H19          5.6160    -0.7540    -0.5600 hc         1 NJ5       0.055700
     61 H18          3.9270    -1.2550    -0.4540 hc         1 NJ5       0.055700
     62 H21          3.8630    -0.7120     1.9540 hc         1 NJ5       0.036200
     63 H20          5.5530    -0.2140     1.9300 hc         1 NJ5       0.036200
     64 H23          5.0720     1.7240     0.5370 hc         1 NJ5       0.065700
     65 H22          3.4730     1.1190     0.1260 hc         1 NJ5       0.065700
     66 H24          2.7970     1.3170     2.5450 hc         1 NJ5       0.065200
     67 H25          4.3750     2.1060     2.8800 hc         1 NJ5       0.065200
     68 H26          1.1890     2.3900     1.5040 hn         1 NJ5       0.365500
     69 H27          1.2400     5.2490     2.1130 h1         1 NJ5       0.070700
     70 H28          1.8890     5.3950    -0.2790 h2         1 NJ5       0.097700
     71 H29         -1.4830     0.7140     1.6750 h1         1 NJ5       0.022200
     72 H30         -2.9710     0.1850     0.8910 h1         1 NJ5       0.022200
     73 H31         -2.5030    -1.6670     2.1730 h1         1 NJ5       0.087700
     74 H32         -1.0350    -4.1670     1.2310 h2         1 NJ5       0.093700
     75 H33         -0.2000    -2.0980    -1.6950 h4         1 NJ5       0.293000
     76 H34          0.5940    -3.1780    -3.9330 ha         1 NJ5       0.260000
     77 H35          0.3090    -6.8780    -2.0840 hn         1 NJ5       0.311500
     78 H36          0.8800    -1.8670     0.3570 h1         1 NJ5       0.096700
     79 H37          2.1050    -3.6520     0.9270 ho         1 NJ5       0.498000
     80 H38          0.2130    -0.8410     2.4890 h1         1 NJ5       0.047700
     81 H39          0.3470    -3.1870     3.2820 ho         1 NJ5       0.502000
     82 H40         -1.7630     5.9750    -0.2160 h1         1 NJ5       0.096700
     83 H41         -2.7910     7.9470     0.8680 h1         1 NJ5       0.001200
     84 H42         -1.2110     8.4910     1.4440 h1         1 NJ5       0.001200
     85 H43         -1.8270     9.6280    -0.4320 ho         1 NJ5       0.475000
     86 H44         -0.8400     6.3330     2.6960 h1         1 NJ5       0.028700
     87 H45         -3.0560     6.4600     2.6580 ho         1 NJ5       0.483000
     88 H46         -1.2070     3.7580     1.0790 h1         1 NJ5       0.087700
     89 H47         -1.6800     3.9210     3.4390 ho         1 NJ5       0.431000
@<TRIPOS>BOND
     1     1     2 1   
     2     1    50 1   
     3     1    51 1   
     4     1    52 1   
     5     2     3 1   
     6     2    53 1   
     7     2    54 1   
     8     3     4 1   
     9     3    55 1   
    10     3    56 1   
    11     4     5 2   
    12     4     6 1   
    13     6     7 1   
    14     6    57 1   
    15     7     8 1   
    16     7    58 1   
    17     7    59 1   
    18     8     9 1   
    19     8    60 1   
    20     8    61 1   
    21     9    10 1   
    22     9    62 1   
    23     9    63 1   
    24    10    11 1   
    25    10    64 1   
    26    10    65 1   
    27    11    12 1   
    28    11    66 1   
    29    11    67 1   
    30    12    13 2   
    31    12    14 1   
    32    14    15 1   
    33    14    68 1   
    34    15    16 1   
    35    15    48 1   
    36    15    69 1   
    37    16    17 1   
    38    16    42 1   
    39    16    70 1   
    40    17    18 1   
    41    18    19 1   
    42    18    20 1   
    43    18    21 1   
    44    21    22 1   
    45    22    23 1   
    46    22    24 1   
    47    22    25 1   
    48    25    26 1   
    49    26    27 1   
    50    26    71 1   
    51    26    72 1   
    52    27    28 1   
    53    27    40 1   
    54    27    73 1   
    55    28    29 1   
    56    29    30 1   
    57    29    38 1   
    58    29    74 1   
    59    30    31 1   
    60    30    36 1   
    61    31    32 2   
    62    31    75 1   
    63    32    33 1   
    64    32    76 1   
    65    33    34 2   
    66    33    35 1   
    67    35    36 1   
    68    35    77 1   
    69    36    37 2   
    70    38    39 1   
    71    38    40 1   
    72    38    78 1   
    73    39    79 1   
    74    40    41 1   
    75    40    80 1   
    76    41    81 1   
    77    42    43 1   
    78    43    44 1   
    79    43    46 1   
    80    43    82 1   
    81    44    45 1   
    82    44    83 1   
    83    44    84 1   
    84    45    85 1   
    85    46    47 1   
    86    46    48 1   
    87    46    86 1   
    88    47    87 1   
    89    48    49 1   
    90    48    88 1   
    91    49    89 1   
@<TRIPOS>SUBSTRUCTURE
     1 NJ5         1 TEMP              0 ****  ****    0 ROOT
