@<TRIPOS>MOLECULE
NJ6
   57    60     1     0     0
SMALL
abcg2


@<TRIPOS>ATOM
      1 N1          56.5720   -15.4100   -12.6520 nu         1 NJ6      -0.928100
      2 N3          54.3010   -15.8540   -12.5000 nb         1 NJ6      -0.272000
      3 C4          56.6850   -17.8060   -13.3530 c6         1 NJ6      -0.092400
      4 C5          57.0840   -16.7310   -12.3430 c6         1 NJ6       0.264500
      5 C6          56.7870   -17.1950   -10.9160 c6         1 NJ6      -0.092400
      6 C7          55.2920   -14.9850   -12.6770 ca         1 NJ6       0.404900
      7 C8          53.0890   -15.3180   -12.5520 ca         1 NJ6       0.184500
      8 C10         53.9400   -13.1520   -12.9330 ca         1 NJ6       0.209900
      9 C13         51.7460   -17.3720   -12.0410 c5         1 NJ6       0.087300
     10 C15         52.4310   -19.2660   -10.7740 c5         1 NJ6      -0.079900
     11 C17         52.3450   -18.3830   -13.0480 c5         1 NJ6      -0.088900
     12 C1          57.5200   -18.5000   -10.6230 c6         1 NJ6      -0.073900
     13 C11         50.8860   -15.0290   -12.4870 cc         1 NJ6      -0.147300
     14 C12         51.4060   -13.7880   -12.6910 cd         1 NJ6      -0.138200
     15 C14         52.3240   -17.7490   -10.6730 c5         1 NJ6      -0.088900
     16 C16         52.9800   -19.4870   -12.1860 c5         1 NJ6      -0.079900
     17 C18         49.4350   -15.3310   -12.3310 c          1 NJ6       0.632300
     18 C2          57.1420   -19.5890   -11.6200 c6         1 NJ6       0.160500
     19 C3          57.4110   -19.1120   -13.0440 c6         1 NJ6      -0.073900
     20 C9          52.8180   -13.9520   -12.7540 ca         1 NJ6      -0.271800
     21 N2          57.9070   -20.7980   -11.3500 n8         1 NJ6      -0.998200
     22 N4          55.1550   -13.6530   -12.8980 nb         1 NJ6      -0.270000
     23 N5          51.9070   -15.9730   -12.4030 na         1 NJ6      -0.179400
     24 N6          48.8790   -16.2040   -13.1930 n          1 NJ6      -0.407800
     25 O1          48.8030   -14.7740   -11.4440 o          1 NJ6      -0.579100
     26 H1          57.2520   -14.6760   -12.7600 hn         1 NJ6       0.506000
     27 H3          55.6050   -17.9620   -13.3210 hc         1 NJ6       0.056200
     28 H4          58.1690   -16.6140   -12.4190 h1         1 NJ6       0.045700
     29 H5          57.0960   -16.4230   -10.2070 hc         1 NJ6       0.056200
     30 H6          55.7110   -17.3370   -10.7880 hc         1 NJ6       0.056200
     31 H7          53.8540   -12.0830   -13.1040 h4         1 NJ6       0.023100
     32 H8          50.6720   -17.5470   -11.9920 h1         1 NJ6       0.064700
     33 H9          51.4410   -19.7200   -10.6730 hc         1 NJ6       0.044950
     34 H10         53.0650   -19.6990   -10.0000 hc         1 NJ6       0.044950
     35 H11         53.0780   -17.9150   -13.7030 hc         1 NJ6       0.058450
     36 H12         51.5570   -18.7800   -13.6890 hc         1 NJ6       0.058450
     37 H13         50.4690   -16.1850   -14.5780 h1         1 NJ6       0.044033
     38 H14         49.5480   -17.6920   -14.5130 h1         1 NJ6       0.044033
     39 H15         48.8590   -16.2570   -15.2800 h1         1 NJ6       0.044033
     40 H16         57.2990   -18.8340    -9.6050 hc         1 NJ6       0.047450
     41 H17         58.6030   -18.3380   -10.6730 hc         1 NJ6       0.047450
     42 H18         50.8400   -12.8780   -12.8100 ha         1 NJ6       0.216000
     43 H19         53.3160   -17.3140   -10.5340 hc         1 NJ6       0.058450
     44 H20         51.6890   -17.4050    -9.8560 hc         1 NJ6       0.058450
     45 H21         52.7740   -20.4870   -12.5670 hc         1 NJ6       0.044950
     46 H22         54.0650   -19.3690   -12.1720 hc         1 NJ6       0.044950
     47 H23         47.2070   -16.5790   -11.9810 h1         1 NJ6       0.044033
     48 H24         46.8250   -15.8800   -13.5620 h1         1 NJ6       0.044033
     49 H25         47.3350   -17.5680   -13.4370 h1         1 NJ6       0.044033
     50 H26         56.0550   -19.7530   -11.5270 h1         1 NJ6       0.015700
     51 H27         57.1080   -19.8840   -13.7580 hc         1 NJ6       0.047450
     52 H28         58.4910   -18.9750   -13.1680 hc         1 NJ6       0.047450
     53 H29         57.6880   -21.1350   -10.4200 hn         1 NJ6       0.393000
     54 H30         57.6070   -21.5330   -11.9800 hn         1 NJ6       0.393000
     55 H2          56.9290   -17.4690   -14.3640 hc         1 NJ6       0.056200
     56 C20         49.4760   -16.6060   -14.4490 c3         1 NJ6       0.084800
     57 C19         47.4860   -16.5690   -13.0310 c3         1 NJ6       0.084800
@<TRIPOS>BOND
     1     1     4 1   
     2     1     6 1   
     3     1    26 1   
     4     2     6 ar  
     5     2     7 ar  
     6     3     4 1   
     7     3    19 1   
     8     3    27 1   
     9     3    55 1   
    10     4     5 1   
    11     4    28 1   
    12     5    12 1   
    13     5    29 1   
    14     5    30 1   
    15     6    22 ar  
    16     7    20 ar  
    17     7    23 1   
    18     8    20 ar  
    19     8    22 ar  
    20     8    31 1   
    21     9    11 1   
    22     9    15 1   
    23     9    23 1   
    24     9    32 1   
    25    10    15 1   
    26    10    16 1   
    27    10    33 1   
    28    10    34 1   
    29    11    16 1   
    30    11    35 1   
    31    11    36 1   
    32    12    18 1   
    33    12    40 1   
    34    12    41 1   
    35    13    14 2   
    36    13    17 1   
    37    13    23 1   
    38    14    20 1   
    39    14    42 1   
    40    15    43 1   
    41    15    44 1   
    42    16    45 1   
    43    16    46 1   
    44    17    24 1   
    45    17    25 2   
    46    18    19 1   
    47    18    21 1   
    48    18    50 1   
    49    19    51 1   
    50    19    52 1   
    51    21    53 1   
    52    21    54 1   
    53    24    56 1   
    54    24    57 1   
    55    37    56 1   
    56    38    56 1   
    57    39    56 1   
    58    47    57 1   
    59    48    57 1   
    60    49    57 1   
@<TRIPOS>SUBSTRUCTURE
     1 NJ6         1 TEMP              0 ****  ****    0 ROOT
