@<TRIPOS>MOLECULE
NJ6
   57    60     1     0     0
SMALL
No Charge or Current Charge


@<TRIPOS>ATOM
      1 N1          56.7350   -15.2120   -12.3580 nu         1 NJ6      -0.928100
      2 N3          54.4320   -15.7340   -12.4500 nb         1 NJ6      -0.272000
      3 C4          56.9670   -17.4720   -13.4440 c6         1 NJ6      -0.092400
      4 C5          57.2650   -16.5870   -12.2020 c6         1 NJ6       0.264500
      5 C6          56.7810   -17.2590   -10.8850 c6         1 NJ6      -0.092400
      6 C7          55.4070   -14.8010   -12.4660 ca         1 NJ6       0.404900
      7 C8          53.1680   -15.2870   -12.5440 ca         1 NJ6       0.184500
      8 C10         53.9690   -13.0210   -12.6700 ca         1 NJ6       0.209900
      9 C13         51.7780   -17.3390   -12.0030 c5         1 NJ6       0.087300
     10 C15         52.6930   -19.1040   -10.5080 c5         1 NJ6      -0.079900
     11 C17         52.5170   -18.4470   -12.8020 c5         1 NJ6      -0.088900
     12 C1          57.3800   -18.6800   -10.7310 c6         1 NJ6      -0.073900
     13 C11         50.8730   -15.0350   -12.7350 cc         1 NJ6      -0.147300
     14 C12         51.4970   -13.7950   -12.7500 cd         1 NJ6      -0.138200
     15 C14         52.3170   -17.5860   -10.5560 c5         1 NJ6      -0.088900
     16 C16         52.2480   -19.6610   -11.8860 c5         1 NJ6      -0.079900
     17 C18         49.3830   -15.1600   -12.8640 c          1 NJ6       0.632300
     18 C2          57.0550   -19.5600   -11.9670 c6         1 NJ6       0.160500
     19 C3          57.5620   -18.8930   -13.2730 c6         1 NJ6      -0.073900
     20 C9          52.9180   -13.9470   -12.6550 ca         1 NJ6      -0.271800
     21 N2          57.6440   -20.9010   -11.8120 n8         1 NJ6      -0.998200
     22 N4          55.2410   -13.4640   -12.5720 nb         1 NJ6      -0.270000
     23 N5          51.9420   -15.9610   -12.5120 na         1 NJ6      -0.179400
     24 N6          48.8410   -16.3970   -13.2930 n          1 NJ6      -0.407800
     25 O1          48.6400   -14.2120   -12.6330 o          1 NJ6      -0.579100
     26 H1          57.4090   -14.4470   -12.3780 hn         1 NJ6       0.506000
     27 H3          55.8880   -17.5600   -13.6150 hc         1 NJ6       0.056200
     28 H4          58.3610   -16.5120   -12.1290 h1         1 NJ6       0.045700
     29 H5          57.0690   -16.6410   -10.0240 hc         1 NJ6       0.056200
     30 H6          55.6880   -17.3370   -10.8600 hc         1 NJ6       0.056200
     31 H7          53.8060   -11.9480   -12.7600 h4         1 NJ6       0.023100
     32 H8          50.7090   -17.5760   -11.9780 h1         1 NJ6       0.064700
     33 H9          52.2030   -19.6270    -9.6780 hc         1 NJ6       0.044950
     34 H10         53.7730   -19.2290   -10.3670 hc         1 NJ6       0.044950
     35 H11         53.5900   -18.2540   -12.9070 hc         1 NJ6       0.058450
     36 H12         52.1110   -18.5860   -13.8100 hc         1 NJ6       0.058450
     37 H13         50.4890   -16.7990   -14.6000 h1         1 NJ6       0.044033
     38 H14         49.7220   -18.2420   -13.8610 h1         1 NJ6       0.044033
     39 H15         48.9090   -17.3610   -15.1760 h1         1 NJ6       0.044033
     40 H16         56.9820   -19.1480    -9.8200 hc         1 NJ6       0.047450
     41 H17         58.4680   -18.6070   -10.5970 hc         1 NJ6       0.047450
     42 H18         50.9750   -12.8460   -12.8690 ha         1 NJ6       0.216000
     43 H19         53.1950   -16.9720   -10.3270 hc         1 NJ6       0.058450
     44 H20         51.5600   -17.3280    -9.8080 hc         1 NJ6       0.058450
     45 H21         51.1880   -19.9430   -11.8870 hc         1 NJ6       0.044950
     46 H22         52.8220   -20.5470   -12.1820 hc         1 NJ6       0.044950
     47 H23         47.0510   -16.3570   -12.1560 h1         1 NJ6       0.044033
     48 H24         46.8450   -16.0360   -13.9050 h1         1 NJ6       0.044033
     49 H25         47.1630   -17.6980   -13.3250 h1         1 NJ6       0.044033
     50 H26         55.9650   -19.6920   -12.0330 h1         1 NJ6       0.015700
     51 H27         57.2910   -19.5100   -14.1410 hc         1 NJ6       0.047450
     52 H28         58.6590   -18.8320   -13.2610 hc         1 NJ6       0.047450
     53 H29         57.2210   -21.3530   -10.9940 hn         1 NJ6       0.393000
     54 H30         57.3350   -21.4880   -12.5950 hn         1 NJ6       0.393000
     55 H2          57.3870   -17.0030   -14.3440 hc         1 NJ6       0.056200
     56 C20         49.5390   -17.2470   -14.2850 c3         1 NJ6       0.084800
     57 C19         47.3880   -16.6360   -13.1630 c3         1 NJ6       0.084800
@<TRIPOS>BOND
     1     1     4 1   
     2     1     6 1   
     3     1    26 1   
     4     2     6 ar  
     5     2     7 ar  
     6     3     4 1   
     7     3    19 1   
     8     3    27 1   
     9     3    55 1   
    10     4     5 1   
    11     4    28 1   
    12     5    12 1   
    13     5    29 1   
    14     5    30 1   
    15     6    22 ar  
    16     7    20 ar  
    17     7    23 1   
    18     8    20 ar  
    19     8    22 ar  
    20     8    31 1   
    21     9    11 1   
    22     9    15 1   
    23     9    23 1   
    24     9    32 1   
    25    10    15 1   
    26    10    16 1   
    27    10    33 1   
    28    10    34 1   
    29    11    16 1   
    30    11    35 1   
    31    11    36 1   
    32    12    18 1   
    33    12    40 1   
    34    12    41 1   
    35    13    14 2   
    36    13    17 1   
    37    13    23 1   
    38    14    20 1   
    39    14    42 1   
    40    15    43 1   
    41    15    44 1   
    42    16    45 1   
    43    16    46 1   
    44    17    24 1   
    45    17    25 2   
    46    18    19 1   
    47    18    21 1   
    48    18    50 1   
    49    19    51 1   
    50    19    52 1   
    51    21    53 1   
    52    21    54 1   
    53    24    56 1   
    54    24    57 1   
    55    37    56 1   
    56    38    56 1   
    57    39    56 1   
    58    47    57 1   
    59    48    57 1   
    60    49    57 1   
@<TRIPOS>SUBSTRUCTURE
     1 NJ6         1 TEMP              0 ****  ****    0 ROOT
