@<TRIPOS>MOLECULE
NJ7
   84    87     1     0     0
SMALL
No Charge or Current Charge


@<TRIPOS>ATOM
      1 C13         71.1680    57.1440    15.1580 c3         1 NJ7       0.155300
      2 C15         70.8770    57.8130    16.5380 c3         1 NJ7       0.098700
      3 C17         72.8920    58.7800    17.6890 c          1 NJ7       0.635100
      4 C20         74.5300    60.1040    18.8070 c5         1 NJ7       0.160300
      5 C21         75.4310    61.3000    18.3960 c5         1 NJ7       0.151600
      6 C24         74.3410    62.0920    20.2740 c5         1 NJ7       0.368300
      7 C26         72.0570    61.9370    19.9390 c5         1 NJ7       0.150600
      8 C28         69.4300    58.3490    16.7220 c3         1 NJ7      -0.040100
      9 C01         67.2210    51.8450    13.2530 ca         1 NJ7      -0.079300
     10 C02         68.2930    51.1860    13.8860 ca         1 NJ7      -0.117500
     11 C03         69.0030    51.8100    14.9260 ca         1 NJ7      -0.018000
     12 C04         68.6510    53.1110    15.3420 ca         1 NJ7      -0.308500
     13 C05         67.5760    53.7730    14.7150 ca         1 NJ7      -0.018000
     14 C06         66.8690    53.1440    13.6770 ca         1 NJ7      -0.117500
     15 C11         71.7890    53.7230    15.1940 c3         1 NJ7       0.204800
     16 C12         70.4160    55.7950    14.9410 c3         1 NJ7       0.211800
     17 C23         74.0200    60.5590    20.2370 c5         1 NJ7      -0.140700
     18 C25         72.4560    60.5220    20.4130 c5         1 NJ7      -0.094400
     19 C29         69.2010    58.9750    18.0960 ca         1 NJ7      -0.084300
     20 C30         69.2790    58.1820    19.2590 ca         1 NJ7      -0.100500
     21 C31         69.0780    58.7560    20.5260 ca         1 NJ7      -0.115000
     22 C32         68.7910    60.1270    20.6390 ca         1 NJ7      -0.114000
     23 C33         68.7050    60.9220    19.4840 ca         1 NJ7      -0.115000
     24 C34         68.9130    60.3490    18.2170 ca         1 NJ7      -0.100500
     25 C35         64.9450    50.9620    12.4770 c3         1 NJ7       0.168600
     26 C37         73.1800    54.2870    14.7920 c3         1 NJ7      -0.059700
     27 C38         73.9930    53.2820    13.9270 c3         1 NJ7      -0.076400
     28 C39         73.9820    54.7840    16.0210 c3         1 NJ7      -0.089100
     29 C40         66.4520    51.1540    12.1250 c3         1 NJ7       0.207600
     30 N10         70.8500    54.6810    15.8400 n3         1 NJ7      -0.742500
     31 N16         71.8420    58.8860    16.8240 ns         1 NJ7      -0.502900
     32 O08         68.7580    54.9890    17.2540 o          1 NJ7      -0.540500
     33 O09         70.1830    52.9010    17.5340 o          1 NJ7      -0.540500
     34 O14         70.8650    58.0540    14.0790 oh         1 NJ7      -0.671000
     35 O18         73.2170    57.7610    18.2780 o          1 NJ7      -0.538000
     36 O19         73.4600    60.0160    17.8210 os         1 NJ7      -0.460100
     37 O22         74.7580    62.4470    18.9450 os         1 NJ7      -0.467000
     38 O27         73.0870    62.7500    20.5300 os         1 NJ7      -0.447000
     39 O41         66.6050    51.9120    10.9110 oh         1 NJ7      -0.644000
     40 S07         69.5670    53.9150    16.6710 sy         1 NJ7       1.186600
     41 H131        72.2410    56.9250    15.1360 h1         1 NJ7       0.053700
     42 H151        71.0220    57.0280    17.2940 h1         1 NJ7       0.100700
     43 H201        75.1190    59.1760    18.8300 h1         1 NJ7       0.088700
     44 H212        75.5360    61.4050    17.3080 h1         1 NJ7       0.062200
     45 H211        76.4320    61.2210    18.8430 h1         1 NJ7       0.062200
     46 H241        75.1060    62.3550    21.0170 h2         1 NJ7       0.082700
     47 H261        71.0700    62.2510    20.3040 h1         1 NJ7       0.056200
     48 H262        72.0840    62.0390    18.8450 h1         1 NJ7       0.056200
     49 H282        69.2150    59.0820    15.9350 hc         1 NJ7       0.066200
     50 H281        68.7110    57.5370    16.5750 hc         1 NJ7       0.066200
     51 H021        68.5800    50.1830    13.5760 ha         1 NJ7       0.127500
     52 H031        69.8260    51.2800    15.4020 ha         1 NJ7       0.135500
     53 H051        67.2820    54.7740    15.0280 ha         1 NJ7       0.135500
     54 H061        66.0470    53.6710    13.1980 ha         1 NJ7       0.127500
     55 H112        71.3170    53.2990    14.2970 h1         1 NJ7       0.051200
     56 H111        71.9850    52.8800    15.8690 h1         1 NJ7       0.051200
     57 H122        69.3440    56.0020    15.0430 h1         1 NJ7       0.065200
     58 H121        70.5480    55.4960    13.8930 h1         1 NJ7       0.065200
     59 H231        74.5390    60.0190    21.0360 hc         1 NJ7       0.077700
     60 H252        72.1930    60.3990    21.4700 hc         1 NJ7       0.066700
     61 H251        71.9360    59.7220    19.8810 hc         1 NJ7       0.066700
     62 H301        69.4960    57.1190    19.1810 ha         1 NJ7       0.120000
     63 H311        69.1420    58.1390    21.4190 ha         1 NJ7       0.112000
     64 H321        68.6340    60.5710    21.6200 ha         1 NJ7       0.110000
     65 H331        68.4810    61.9830    19.5710 ha         1 NJ7       0.112000
     66 H341        68.8480    60.9760    17.3310 ha         1 NJ7       0.120000
     67 H352        64.4640    51.9460    12.5530 h1         1 NJ7       0.035700
     68 H351        64.8770    50.4880    13.4660 h1         1 NJ7       0.035700
     69 H362        74.9320    51.3140    13.9200 hc         1 NJ7       0.034700
     70 H361        74.9750    52.1080    15.5020 hc         1 NJ7       0.034700
     71 H363        73.4610    51.3880    14.9040 hc         1 NJ7       0.034700
     72 H371        73.0140    55.1510    14.1390 hc         1 NJ7       0.043700
     73 H381        74.9200    53.7680    13.5970 hc         1 NJ7       0.039200
     74 H382        73.4260    53.0610    13.0140 hc         1 NJ7       0.039200
     75 H392        73.4350    55.5670    16.5560 hc         1 NJ7       0.045367
     76 H393        74.1660    53.9680    16.7300 hc         1 NJ7       0.045367
     77 H391        74.9490    55.1990    15.7130 hc         1 NJ7       0.045367
     78 H401        66.8820    50.1520    11.9850 h1         1 NJ7       0.055700
     79 H161        71.6680    59.8140    16.4640 hn         1 NJ7       0.322500
     80 H141        71.5070    58.7950    14.1420 ho         1 NJ7       0.450000
     81 H411        67.5680    52.0590    10.7970 ho         1 NJ7       0.444000
     82 H421        63.3180    50.1230    11.7540 ho         1 NJ7       0.446000
     83 O42         64.2670    50.1480    11.4970 oh         1 NJ7      -0.656000
     84 C36         74.3590    51.9440    14.6110 c3         1 NJ7      -0.090100
@<TRIPOS>BOND
     1     1     2 1   
     2     1    16 1   
     3     1    34 1   
     4     1    41 1   
     5     2     8 1   
     6     2    31 1   
     7     2    42 1   
     8     3    31 1   
     9     3    35 2   
    10     3    36 1   
    11     4     5 1   
    12     4    17 1   
    13     4    36 1   
    14     4    43 1   
    15     5    37 1   
    16     5    44 1   
    17     5    45 1   
    18     6    17 1   
    19     6    37 1   
    20     6    38 1   
    21     6    46 1   
    22     7    18 1   
    23     7    38 1   
    24     7    47 1   
    25     7    48 1   
    26     8    19 1   
    27     8    49 1   
    28     8    50 1   
    29     9    10 ar  
    30     9    14 ar  
    31     9    29 1   
    32    10    11 ar  
    33    10    51 1   
    34    11    12 ar  
    35    11    52 1   
    36    12    13 ar  
    37    12    40 1   
    38    13    14 ar  
    39    13    53 1   
    40    14    54 1   
    41    15    26 1   
    42    15    30 1   
    43    15    55 1   
    44    15    56 1   
    45    16    30 1   
    46    16    57 1   
    47    16    58 1   
    48    17    18 1   
    49    17    59 1   
    50    18    60 1   
    51    18    61 1   
    52    19    20 ar  
    53    19    24 ar  
    54    20    21 ar  
    55    20    62 1   
    56    21    22 ar  
    57    21    63 1   
    58    22    23 ar  
    59    22    64 1   
    60    23    24 ar  
    61    23    65 1   
    62    24    66 1   
    63    25    29 1   
    64    25    67 1   
    65    25    68 1   
    66    25    83 1   
    67    26    27 1   
    68    26    28 1   
    69    26    72 1   
    70    27    73 1   
    71    27    74 1   
    72    27    84 1   
    73    28    75 1   
    74    28    76 1   
    75    28    77 1   
    76    29    39 1   
    77    29    78 1   
    78    30    40 1   
    79    31    79 1   
    80    32    40 2   
    81    33    40 2   
    82    34    80 1   
    83    39    81 1   
    84    69    84 1   
    85    70    84 1   
    86    71    84 1   
    87    82    83 1   
@<TRIPOS>SUBSTRUCTURE
     1 NJ7         1 TEMP              0 ****  ****    0 ROOT
