@<TRIPOS>MOLECULE
NJ7
   84    87     1     0     0
SMALL
abcg2


@<TRIPOS>ATOM
      1 C13         71.1460    57.4580    14.9340 c3         1 NJ7       0.155300
      2 C15         70.8520    57.9790    16.3510 c3         1 NJ7       0.098700
      3 C17         72.7210    58.6680    17.7970 c          1 NJ7       0.635100
      4 C20         74.4770    59.6450    19.0910 c5         1 NJ7       0.160300
      5 C21         75.6660    60.5150    18.7300 c5         1 NJ7       0.151600
      6 C24         74.5450    61.7440    20.3350 c5         1 NJ7       0.368300
      7 C26         72.2860    61.9620    19.9000 c5         1 NJ7       0.150600
      8 C28         69.4680    58.6250    16.4990 c3         1 NJ7      -0.040100
      9 C01         67.2340    51.7920    13.3260 ca         1 NJ7      -0.079300
     10 C02         68.2900    51.2470    14.0570 ca         1 NJ7      -0.117500
     11 C03         68.9750    52.0090    14.9920 ca         1 NJ7      -0.018000
     12 C04         68.5990    53.3350    15.1950 ca         1 NJ7      -0.308500
     13 C05         67.5480    53.8960    14.4750 ca         1 NJ7      -0.018000
     14 C06         66.8690    53.1200    13.5460 ca         1 NJ7      -0.117500
     15 C11         71.7080    54.0940    14.8230 c3         1 NJ7       0.204800
     16 C12         70.3700    56.1920    14.5680 c3         1 NJ7       0.211800
     17 C23         73.9510    60.3120    20.3780 c5         1 NJ7      -0.140700
     18 C25         72.4400    60.5580    20.4730 c5         1 NJ7      -0.094400
     19 C29         69.2040    59.0900    17.9090 ca         1 NJ7      -0.084300
     20 C30         69.0170    58.1680    18.9420 ca         1 NJ7      -0.100500
     21 C31         68.7990    58.5960    20.2470 ca         1 NJ7      -0.115000
     22 C32         68.7600    59.9560    20.5410 ca         1 NJ7      -0.114000
     23 C33         68.9440    60.8820    19.5210 ca         1 NJ7      -0.115000
     24 C34         69.1680    60.4490    18.2180 ca         1 NJ7      -0.100500
     25 C35         65.3230    50.2300    13.0560 c3         1 NJ7       0.168600
     26 C37         73.1400    54.6290    14.7840 c3         1 NJ7      -0.059700
     27 C38         74.0420    53.6570    14.0020 c3         1 NJ7      -0.076400
     28 C39         73.6700    54.9310    16.1850 c3         1 NJ7      -0.089100
     29 C40         66.4750    50.9220    12.3460 c3         1 NJ7       0.207600
     30 N10         70.7320    55.0390    15.4060 n3         1 NJ7      -0.742500
     31 N16         71.8910    58.9090    16.7650 ns         1 NJ7      -0.502900
     32 O08         68.6810    55.4160    16.7730 o          1 NJ7      -0.540500
     33 O09         70.1680    53.4850    17.2730 o          1 NJ7      -0.540500
     34 O14         70.8210    58.4040    13.9150 oh         1 NJ7      -0.671000
     35 O18         72.7620    57.6420    18.4580 o          1 NJ7      -0.538000
     36 O19         73.5330    59.7340    18.0060 os         1 NJ7      -0.460100
     37 O22         75.2990    61.8390    19.1240 os         1 NJ7      -0.467000
     38 O27         73.4810    62.6540    20.3250 os         1 NJ7      -0.447000
     39 O41         65.9270    51.6630    11.2570 oh         1 NJ7      -0.644000
     40 S07         69.5350    54.3500    16.3050 sy         1 NJ7       1.186600
     41 H131        72.2140    57.2400    14.8980 h1         1 NJ7       0.053700
     42 H151        70.9280    57.1280    17.0250 h1         1 NJ7       0.100700
     43 H201        74.7410    58.6030    19.2390 h1         1 NJ7       0.088700
     44 H212        75.8840    60.5170    17.6630 h1         1 NJ7       0.062200
     45 H211        76.5520    60.1800    19.2820 h1         1 NJ7       0.062200
     46 H241        75.1920    62.0000    21.1770 h2         1 NJ7       0.082700
     47 H261        71.4350    62.5110    20.2940 h1         1 NJ7       0.056200
     48 H262        72.2310    61.9470    18.8090 h1         1 NJ7       0.056200
     49 H282        69.3970    59.4710    15.8150 hc         1 NJ7       0.066200
     50 H281        68.7150    57.8960    16.2000 hc         1 NJ7       0.066200
     51 H021        68.5810    50.2170    13.8920 ha         1 NJ7       0.127500
     52 H031        69.7890    51.5790    15.5570 ha         1 NJ7       0.135500
     53 H051        67.2560    54.9220    14.6460 ha         1 NJ7       0.135500
     54 H061        66.0520    53.5490    12.9820 ha         1 NJ7       0.127500
     55 H112        71.3810    53.8310    13.8110 h1         1 NJ7       0.051200
     56 H111        71.6880    53.1910    15.4270 h1         1 NJ7       0.051200
     57 H122        69.3030    56.3900    14.6390 h1         1 NJ7       0.065200
     58 H121        70.5890    55.9480    13.5270 h1         1 NJ7       0.065200
     59 H231        74.3270    59.7580    21.2350 hc         1 NJ7       0.077700
     60 H252        72.1340    60.5480    21.5190 hc         1 NJ7       0.066700
     61 H251        71.8410    59.8220    19.9430 hc         1 NJ7       0.066700
     62 H301        69.0430    57.1080    18.7180 ha         1 NJ7       0.120000
     63 H311        68.6570    57.8670    21.0350 ha         1 NJ7       0.112000
     64 H321        68.5930    60.2900    21.5580 ha         1 NJ7       0.110000
     65 H331        68.9220    61.9430    19.7400 ha         1 NJ7       0.112000
     66 H341        69.3210    61.1750    17.4280 ha         1 NJ7       0.120000
     67 H352        64.5760    50.9830    13.3310 h1         1 NJ7       0.035700
     68 H351        65.7050    49.7690    13.9730 h1         1 NJ7       0.035700
     69 H362        74.8700    51.6580    13.9890 hc         1 NJ7       0.034700
     70 H361        74.5890    52.2860    15.6100 hc         1 NJ7       0.034700
     71 H363        73.2330    51.7270    14.6300 hc         1 NJ7       0.034700
     72 H371        73.1400    55.5590    14.2100 hc         1 NJ7       0.043700
     73 H381        75.0310    54.1160    13.9210 hc         1 NJ7       0.039200
     74 H382        73.6570    53.5750    12.9800 hc         1 NJ7       0.039200
     75 H392        73.0590    55.6800    16.6880 hc         1 NJ7       0.045367
     76 H393        73.6710    54.0350    16.8090 hc         1 NJ7       0.045367
     77 H391        74.6930    55.3080    16.1340 hc         1 NJ7       0.045367
     78 H401        67.1520    50.1490    11.9670 h1         1 NJ7       0.055700
     79 H161        71.9100    59.8340    16.3630 hn         1 NJ7       0.322500
     80 H141        71.4570    59.1290    13.9440 ho         1 NJ7       0.450000
     81 H411        66.6560    52.0350    10.7440 ho         1 NJ7       0.444000
     82 H421        64.0200    48.8340    12.6410 ho         1 NJ7       0.446000
     83 O42         64.7660    49.2460    12.1880 oh         1 NJ7      -0.656000
     84 C36         74.1870    52.2550    14.5960 c3         1 NJ7      -0.090100
@<TRIPOS>BOND
     1     1     2 1   
     2     1    16 1   
     3     1    34 1   
     4     1    41 1   
     5     2     8 1   
     6     2    31 1   
     7     2    42 1   
     8     3    31 1   
     9     3    35 2   
    10     3    36 1   
    11     4     5 1   
    12     4    17 1   
    13     4    36 1   
    14     4    43 1   
    15     5    37 1   
    16     5    44 1   
    17     5    45 1   
    18     6    17 1   
    19     6    37 1   
    20     6    38 1   
    21     6    46 1   
    22     7    18 1   
    23     7    38 1   
    24     7    47 1   
    25     7    48 1   
    26     8    19 1   
    27     8    49 1   
    28     8    50 1   
    29     9    10 ar  
    30     9    14 ar  
    31     9    29 1   
    32    10    11 ar  
    33    10    51 1   
    34    11    12 ar  
    35    11    52 1   
    36    12    13 ar  
    37    12    40 1   
    38    13    14 ar  
    39    13    53 1   
    40    14    54 1   
    41    15    26 1   
    42    15    30 1   
    43    15    55 1   
    44    15    56 1   
    45    16    30 1   
    46    16    57 1   
    47    16    58 1   
    48    17    18 1   
    49    17    59 1   
    50    18    60 1   
    51    18    61 1   
    52    19    20 ar  
    53    19    24 ar  
    54    20    21 ar  
    55    20    62 1   
    56    21    22 ar  
    57    21    63 1   
    58    22    23 ar  
    59    22    64 1   
    60    23    24 ar  
    61    23    65 1   
    62    24    66 1   
    63    25    29 1   
    64    25    67 1   
    65    25    68 1   
    66    25    83 1   
    67    26    27 1   
    68    26    28 1   
    69    26    72 1   
    70    27    73 1   
    71    27    74 1   
    72    27    84 1   
    73    28    75 1   
    74    28    76 1   
    75    28    77 1   
    76    29    39 1   
    77    29    78 1   
    78    30    40 1   
    79    31    79 1   
    80    32    40 2   
    81    33    40 2   
    82    34    80 1   
    83    39    81 1   
    84    69    84 1   
    85    70    84 1   
    86    71    84 1   
    87    82    83 1   
@<TRIPOS>SUBSTRUCTURE
     1 NJ7         1 TEMP              0 ****  ****    0 ROOT
