@<TRIPOS>MOLECULE
NJ8
   34    35     1     0     0
SMALL
bcc


@<TRIPOS>ATOM
      1 C1           2.7160     0.4050     0.9910 ca         1 NJ8      -0.218000
      2 C2           3.4490     0.5440    -0.1840 ca         1 NJ8      -0.025300
      3 C3           2.8710     0.1500    -1.3880 ca         1 NJ8      -0.158000
      4 C4           1.5840    -0.3650    -1.4150 ca         1 NJ8      -0.087000
      5 C5           0.8690    -0.4930    -0.2400 ca         1 NJ8       0.040100
      6 C6           1.4240    -0.1090     0.9800 ca         1 NJ8       0.137100
      7 O7          -0.3920    -1.0510    -0.2550 os         1 NJ8      -0.212200
      8 C8          -1.4640    -0.2470    -0.2060 ca         1 NJ8       0.180100
      9 C9          -2.7100    -0.8730    -0.0880 ca         1 NJ8      -0.019600
     10 C10         -3.8730    -0.1360    -0.0530 ca         1 NJ8      -0.052000
     11 C11         -3.8040     1.2550    -0.1330 ca         1 NJ8      -0.054000
     12 C12         -2.5690     1.8890    -0.2490 ca         1 NJ8      -0.051000
     13 C13         -1.4080     1.1410    -0.2850 ca         1 NJ8      -0.206000
     14 C15         -5.0040     2.0230    -0.0990 cg         1 NJ8       0.239800
     15 CL16        -2.7760    -2.5920     0.0100 cl         1 NJ8      -0.076400
     16 O17          0.6650    -0.2500     2.0790 oh         1 NJ8      -0.474100
     17 N20         -5.9730     2.6460    -0.0740 n1         1 NJ8      -0.365800
     18 C21          4.8560     1.0710    -0.1440 c3         1 NJ8      -0.037100
     19 C22          5.8990    -0.0460    -0.1010 c3         1 NJ8      -0.073400
     20 C23          7.3210     0.4960    -0.0490 c3         1 NJ8      -0.091100
     21 H1           3.1550     0.7070     1.9370 ha         1 NJ8       0.136000
     22 H3           3.4240     0.2520    -2.3140 ha         1 NJ8       0.141000
     23 H4           1.1300    -0.6680    -2.3500 ha         1 NJ8       0.152000
     24 H10         -4.8280    -0.6350     0.0390 ha         1 NJ8       0.159000
     25 H12         -2.5130     2.9660    -0.3130 ha         1 NJ8       0.145000
     26 H13         -0.4580     1.6480    -0.3870 ha         1 NJ8       0.151000
     27 HO17         1.1480     0.0450     2.8600 ho         1 NJ8       0.430000
     28 H21          5.0360     1.6970    -1.0220 hc         1 NJ8       0.049700
     29 H21A         4.9840     1.7170     0.7290 hc         1 NJ8       0.049700
     30 H22          5.7140    -0.6810     0.7710 hc         1 NJ8       0.043700
     31 H22A         5.7790    -0.6890    -0.9770 hc         1 NJ8       0.043700
     32 H23          7.5420     1.1080    -0.9260 hc         1 NJ8       0.034033
     33 H23A         7.4730     1.1190     0.8340 hc         1 NJ8       0.034033
     34 H23B         8.0520    -0.3120    -0.0170 hc         1 NJ8       0.034033
@<TRIPOS>BOND
     1     1     2 ar  
     2     1     6 ar  
     3     1    21 1   
     4     2     3 ar  
     5     2    18 1   
     6     3     4 ar  
     7     3    22 1   
     8     4     5 ar  
     9     4    23 1   
    10     5     6 ar  
    11     5     7 1   
    12     6    16 1   
    13     7     8 1   
    14     8     9 ar  
    15     8    13 ar  
    16     9    10 ar  
    17     9    15 1   
    18    10    11 ar  
    19    10    24 1   
    20    11    12 ar  
    21    11    14 1   
    22    12    13 ar  
    23    12    25 1   
    24    13    26 1   
    25    14    17 3   
    26    16    27 1   
    27    18    19 1   
    28    18    28 1   
    29    18    29 1   
    30    19    20 1   
    31    19    30 1   
    32    19    31 1   
    33    20    32 1   
    34    20    33 1   
    35    20    34 1   
@<TRIPOS>SUBSTRUCTURE
     1 NJ8         1 TEMP              0 ****  ****    0 ROOT
