@<TRIPOS>MOLECULE
NJ8
   34    35     1     0     0
SMALL
No Charge or Current Charge


@<TRIPOS>ATOM
      1 C1           2.6580     0.4520     0.7940 ca         1 NJ8      -0.200000
      2 C2           3.4930     0.5250    -0.3370 ca         1 NJ8      -0.025300
      3 C3           3.0120     0.0850    -1.5840 ca         1 NJ8      -0.140000
      4 C4           1.7050    -0.4170    -1.7040 ca         1 NJ8      -0.069000
      5 C5           0.8670    -0.4760    -0.5780 ca         1 NJ8       0.040100
      6 C6           1.3490    -0.0480     0.6830 ca         1 NJ8       0.137100
      7 O7          -0.4090    -0.9750    -0.7290 os         1 NJ8      -0.212200
      8 C8          -1.5360    -0.2330    -0.4400 ca         1 NJ8       0.180100
      9 C9          -2.7210    -0.8940    -0.0560 ca         1 NJ8       0.072000
     10 C10         -3.8810    -0.1530     0.2310 ca         1 NJ8      -0.034000
     11 C11         -3.8670     1.2530     0.1310 ca         1 NJ8      -0.054000
     12 C12         -2.6870     1.9140    -0.2620 ca         1 NJ8      -0.033000
     13 C13         -1.5260     1.1740    -0.5500 ca         1 NJ8      -0.188000
     14 C15         -5.0530     2.0080     0.4250 cg         1 NJ8       0.329000
     15 Cl16        -2.7700    -2.6520     0.0770 cl         1 NJ8      -0.168000
     16 O17          0.5670    -0.1250     1.8020 oh         1 NJ8      -0.513100
     17 N20         -6.0220     2.6130     0.6660 n1         1 NJ8      -0.455000
     18 C21          4.9120     1.0630    -0.2090 c3         1 NJ8      -0.037100
     19 C22          5.9280    -0.0500     0.1230 c3         1 NJ8      -0.073400
     20 C23          7.3730     0.4670     0.2580 c3         1 NJ8      -0.091100
     21 H1           3.0350     0.7820     1.7600 ha         1 NJ8       0.118000
     22 H3           3.6530     0.1290    -2.4620 ha         1 NJ8       0.123000
     23 H4           1.3380    -0.7560    -2.6700 ha         1 NJ8       0.134000
     24 H10         -4.7880    -0.6730     0.5310 ha         1 NJ8       0.141000
     25 H12         -2.6690     2.9990    -0.3480 ha         1 NJ8       0.127000
     26 H13         -0.6250     1.6960    -0.8610 ha         1 NJ8       0.133000
     27 HO17         1.0850     0.2040     2.5670 ho         1 NJ8       0.469000
     28 H21          5.2120     1.5580    -1.1410 hc         1 NJ8       0.049700
     29 H21A         4.9530     1.8330     0.5710 hc         1 NJ8       0.049700
     30 H22          5.6340    -0.5400     1.0600 hc         1 NJ8       0.043700
     31 H22A         5.8930    -0.8160    -0.6620 hc         1 NJ8       0.043700
     32 H23          7.7080     0.9320    -0.6780 hc         1 NJ8       0.034033
     33 H23A         7.4460     1.2110     1.0600 hc         1 NJ8       0.034033
     34 H23B         8.0540    -0.3590     0.4930 hc         1 NJ8       0.034033
@<TRIPOS>BOND
     1     1     2 ar  
     2     1     6 ar  
     3     1    21 1   
     4     2     3 ar  
     5     2    18 1   
     6     3     4 ar  
     7     3    22 1   
     8     4     5 ar  
     9     4    23 1   
    10     5     6 ar  
    11     5     7 1   
    12     6    16 1   
    13     7     8 1   
    14     8     9 ar  
    15     8    13 ar  
    16     9    10 ar  
    17     9    15 1   
    18    10    11 ar  
    19    10    24 1   
    20    11    12 ar  
    21    11    14 1   
    22    12    13 ar  
    23    12    25 1   
    24    13    26 1   
    25    14    17 3   
    26    16    27 1   
    27    18    19 1   
    28    18    28 1   
    29    18    29 1   
    30    19    20 1   
    31    19    30 1   
    32    19    31 1   
    33    20    32 1   
    34    20    33 1   
    35    20    34 1   
@<TRIPOS>SUBSTRUCTURE
     1 NJ8         1 TEMP              0 ****  ****    0 ROOT
