@<TRIPOS>MOLECULE
NJ9
   51    53     1     0     0
SMALL
No Charge or Current Charge


@<TRIPOS>ATOM
      1 C4          52.9090   107.3830    74.2590 c5         1 NJ9       0.157300
      2 C5          55.1630   111.2950    73.5780 c6         1 NJ9       0.166300
      3 C6          53.7490   111.7020    71.6250 c6         1 NJ9       0.166300
      4 C7          51.8390   106.3400    74.6860 c5         1 NJ9       0.064000
      5 C8          55.5400   113.3390    72.2410 c3         1 NJ9       0.181800
      6 C10         52.1060   103.8190    74.9200 ca         1 NJ9       0.020000
      7 C13         50.2370   102.2700    75.2580 ca         1 NJ9      -0.052000
      8 C15         51.1230   101.2150    75.5670 ca         1 NJ9      -0.177900
      9 C1          52.3360   108.6190    73.5060 c3         1 NJ9       0.167800
     10 C2          52.7070   110.6710    72.1690 c6         1 NJ9       0.162800
     11 C3          54.1200   110.2660    74.1220 c6         1 NJ9       0.162800
     12 C12         52.9910   102.7430    75.1360 ca         1 NJ9      -0.158500
     13 C16         50.5960    99.8500    75.8890 ce         1 NJ9       0.670800
     14 C11         50.7230   103.5460    74.9250 ca         1 NJ9      -0.158500
     15 C14         52.5110   101.4650    75.4720 ca         1 NJ9      -0.052000
     16 C17         54.9380   114.5650    71.5260 c3         1 NJ9      -0.204400
     17 C18         56.0670   115.5610    71.2430 c          1 NJ9       0.711000
     18 C9          53.7070   105.3140    73.6400 c          1 NJ9       0.697100
     19 N1          53.3310   109.6190    73.0270 n3         1 NJ9      -0.708600
     20 N2          54.5410   112.3510    72.7200 n3         1 NJ9      -0.730600
     21 N3          52.5700   105.0930    74.4290 n          1 NJ9      -0.261400
     22 N4          51.3810    99.0200    76.6040 nv         1 NJ9      -1.088200
     23 N5          49.4140    99.4770    75.6210 n2         1 NJ9      -0.836100
     24 O1          53.8420   106.6520    73.4230 os         1 NJ9      -0.387100
     25 O2          54.4560   104.4660    73.1770 o          1 NJ9      -0.523000
     26 O3          56.3310   116.3930    72.0970 o          1 NJ9      -0.742000
     27 O4          56.6830   115.4510    70.1940 o          1 NJ9      -0.742000
     28 H1          53.4530   107.7210    75.1510 h1         1 NJ9       0.077700
     29 H2          55.9250   110.7450    73.0060 h1         1 NJ9       0.040950
     30 H3          55.6760   111.7550    74.4350 h1         1 NJ9       0.040950
     31 H4          54.4230   111.1820    70.9270 h1         1 NJ9       0.040950
     32 H5          53.2000   112.4550    71.0420 h1         1 NJ9       0.040950
     33 H6          50.9370   106.4040    74.0640 h1         1 NJ9       0.063200
     34 H7          51.5560   106.4450    75.7410 h1         1 NJ9       0.063200
     35 H8          56.2560   112.8510    71.5640 h1         1 NJ9       0.037200
     36 H9          56.1170   113.7070    73.1010 h1         1 NJ9       0.037200
     37 H10         49.1610   102.1040    75.2720 ha         1 NJ9       0.125000
     38 H11         51.6120   109.1120    74.1710 h1         1 NJ9       0.040200
     39 H12         51.7650   108.2390    72.6480 h1         1 NJ9       0.040200
     40 H13         51.9420   111.2160    72.7420 h1         1 NJ9       0.027950
     41 H14         52.1960   110.2070    71.3130 h1         1 NJ9       0.027950
     42 H15         53.4430   110.7850    74.8170 h1         1 NJ9       0.027950
     43 H16         54.6640   109.5090    74.7050 h1         1 NJ9       0.027950
     44 H17         54.0650   102.8910    75.0770 ha         1 NJ9       0.132500
     45 H18         50.0080   104.3240    74.6720 ha         1 NJ9       0.132500
     46 H19         53.2310   100.6660    75.6410 ha         1 NJ9       0.125000
     47 H20         54.2060   114.9950    72.2200 hc         1 NJ9       0.025700
     48 H21         54.5080   114.2050    70.5840 hc         1 NJ9       0.025700
     49 H24         52.1670    99.4710    77.0590 hn         1 NJ9       0.464000
     50 H25         50.9010    98.3290    77.1690 hn         1 NJ9       0.464000
     51 H26         49.3650    98.4620    75.7600 hn         1 NJ9       0.364400
@<TRIPOS>BOND
     1     1     4 1   
     2     1     9 1   
     3     1    24 1   
     4     1    28 1   
     5     2    11 1   
     6     2    20 1   
     7     2    29 1   
     8     2    30 1   
     9     3    10 1   
    10     3    20 1   
    11     3    31 1   
    12     3    32 1   
    13     4    21 1   
    14     4    33 1   
    15     4    34 1   
    16     5    16 1   
    17     5    20 1   
    18     5    35 1   
    19     5    36 1   
    20     6    12 ar  
    21     6    14 ar  
    22     6    21 1   
    23     7     8 ar  
    24     7    14 ar  
    25     7    37 1   
    26     8    13 1   
    27     8    15 ar  
    28     9    19 1   
    29     9    38 1   
    30     9    39 1   
    31    10    19 1   
    32    10    40 1   
    33    10    41 1   
    34    11    19 1   
    35    11    42 1   
    36    11    43 1   
    37    12    15 ar  
    38    12    44 1   
    39    13    22 1   
    40    13    23 2   
    41    14    45 1   
    42    15    46 1   
    43    16    17 1   
    44    16    47 1   
    45    16    48 1   
    46    17    26 1   
    47    17    27 1   
    48    18    21 1   
    49    18    24 1   
    50    18    25 2   
    51    22    49 1   
    52    22    50 1   
    53    23    51 1   
@<TRIPOS>SUBSTRUCTURE
     1 NJ9         1 TEMP              0 ****  ****    0 ROOT
