@<TRIPOS>MOLECULE
NJ9
   51    53     1     0     0
SMALL
abcg2


@<TRIPOS>ATOM
      1 C4          53.1030   107.3450    74.1730 c5         1 NJ9       0.157300
      2 C5          55.0290   111.3150    73.7470 c6         1 NJ9       0.166300
      3 C6          53.9500   111.4740    71.6280 c6         1 NJ9       0.166300
      4 C7          52.0620   106.3310    74.6430 c5         1 NJ9       0.064000
      5 C8          55.4320   113.2540    72.3720 c3         1 NJ9       0.181800
      6 C10         52.1800   103.8240    74.7090 ca         1 NJ9       0.020000
      7 C13         50.3530   102.5710    75.6740 ca         1 NJ9      -0.052000
      8 C15         51.0770   101.3830    75.5780 ca         1 NJ9      -0.177900
      9 C1          52.5020   108.5380    73.4660 c3         1 NJ9       0.167800
     10 C2          52.9190   110.4520    72.0760 c6         1 NJ9       0.162800
     11 C3          53.9990   110.2990    74.2060 c6         1 NJ9       0.162800
     12 C12         52.9160   102.6380    74.6090 ca         1 NJ9      -0.158500
     13 C16         50.4680   100.1040    76.0360 ce         1 NJ9       0.670800
     14 C11         50.8920   103.7760    75.2530 ca         1 NJ9      -0.158500
     15 C14         52.3650   101.4420    75.0410 ca         1 NJ9      -0.052000
     16 C17         54.8090   114.4060    71.5970 c3         1 NJ9      -0.204400
     17 C18         55.7400   115.6100    71.3530 c          1 NJ9       0.711000
     18 C9          53.7390   105.2600    73.4280 c          1 NJ9       0.697100
     19 N1          53.4800   109.5390    73.0700 n3         1 NJ9      -0.708600
     20 N2          54.4600   112.2320    72.7660 n3         1 NJ9      -0.730600
     21 N3          52.7070   105.0640    74.3120 n          1 NJ9      -0.261400
     22 N4          51.3540    99.1280    76.4110 nv         1 NJ9      -1.088200
     23 N5          49.1870    99.9700    76.0140 n2         1 NJ9      -0.836100
     24 O1          53.9420   106.5850    73.2590 os         1 NJ9      -0.387100
     25 O2          54.4010   104.4310    72.8430 o          1 NJ9      -0.523000
     26 O3          55.1830   116.6580    70.9320 o          1 NJ9      -0.742000
     27 O4          56.9710   115.4660    71.5700 o          1 NJ9      -0.742000
     28 H1          53.7450   107.6470    75.0000 h1         1 NJ9       0.077700
     29 H2          55.9030   110.7810    73.3330 h1         1 NJ9       0.040950
     30 H3          55.3740   111.8920    74.6080 h1         1 NJ9       0.040950
     31 H4          54.7720   110.9560    71.1030 h1         1 NJ9       0.040950
     32 H5          53.4820   112.1540    70.9170 h1         1 NJ9       0.040950
     33 H6          51.1180   106.4380    74.1010 h1         1 NJ9       0.063200
     34 H7          51.8690   106.4080    75.7110 h1         1 NJ9       0.063200
     35 H8          56.2530   112.8070    71.7880 h1         1 NJ9       0.037200
     36 H9          55.8790   113.6450    73.2880 h1         1 NJ9       0.037200
     37 H10         49.3560   102.5500    76.0910 ha         1 NJ9       0.125000
     38 H11         51.7260   108.9610    74.1280 h1         1 NJ9       0.040200
     39 H12         51.9940   108.1730    72.5700 h1         1 NJ9       0.040200
     40 H13         52.0400   110.9820    72.4810 h1         1 NJ9       0.027950
     41 H14         52.5880   109.8680    71.2150 h1         1 NJ9       0.027950
     42 H15         53.1800   110.8200    74.7320 h1         1 NJ9       0.027950
     43 H16         54.4680   109.6190    74.9180 h1         1 NJ9       0.027950
     44 H17         53.9100   102.6530    74.1960 ha         1 NJ9       0.132500
     45 H18         50.3030   104.6760    75.3510 ha         1 NJ9       0.132500
     46 H19         52.9550   100.5400    74.9400 ha         1 NJ9       0.125000
     47 H20         53.9220   114.7630    72.1260 hc         1 NJ9       0.025700
     48 H21         54.4630   114.0750    70.6140 hc         1 NJ9       0.025700
     49 H24         52.2720    99.3990    76.7270 hn         1 NJ9       0.464000
     50 H25         50.9810    98.2990    76.8470 hn         1 NJ9       0.464000
     51 H26         48.9110    99.0610    76.3850 hn         1 NJ9       0.364400
@<TRIPOS>BOND
     1     1     4 1   
     2     1     9 1   
     3     1    24 1   
     4     1    28 1   
     5     2    11 1   
     6     2    20 1   
     7     2    29 1   
     8     2    30 1   
     9     3    10 1   
    10     3    20 1   
    11     3    31 1   
    12     3    32 1   
    13     4    21 1   
    14     4    33 1   
    15     4    34 1   
    16     5    16 1   
    17     5    20 1   
    18     5    35 1   
    19     5    36 1   
    20     6    12 ar  
    21     6    14 ar  
    22     6    21 1   
    23     7     8 ar  
    24     7    14 ar  
    25     7    37 1   
    26     8    13 1   
    27     8    15 ar  
    28     9    19 1   
    29     9    38 1   
    30     9    39 1   
    31    10    19 1   
    32    10    40 1   
    33    10    41 1   
    34    11    19 1   
    35    11    42 1   
    36    11    43 1   
    37    12    15 ar  
    38    12    44 1   
    39    13    22 1   
    40    13    23 2   
    41    14    45 1   
    42    15    46 1   
    43    16    17 1   
    44    16    47 1   
    45    16    48 1   
    46    17    26 1   
    47    17    27 1   
    48    18    21 1   
    49    18    24 1   
    50    18    25 2   
    51    22    49 1   
    52    22    50 1   
    53    23    51 1   
@<TRIPOS>SUBSTRUCTURE
     1 NJ9         1 TEMP              0 ****  ****    0 ROOT
