@<TRIPOS>MOLECULE
NJA
   80    83     1     0     0
SMALL
No Charge or Current Charge


@<TRIPOS>ATOM
      1 C13          1.1480    -1.0730    -0.2110 c3         1 NJA       0.198800
      2 C21         -6.0420     0.0450     0.1440 c5         1 NJA       0.164300
      3 C22         -5.9290     0.9240     1.4220 c5         1 NJA       0.128600
      4 C24         -7.0830     0.8680    -0.6900 c5         1 NJA      -0.132700
      5 C26         -6.4000     2.0570    -1.4620 c5         1 NJA      -0.103400
      6 C01          6.3100     3.1440     0.9520 ca         1 NJA      -0.055300
      7 C02          6.6910     1.9460     0.3130 ca         1 NJA      -0.126500
      8 C03          5.7380     1.1460    -0.3400 ca         1 NJA      -0.004500
      9 C04          4.3840     1.5360    -0.3590 ca         1 NJA      -0.288500
     10 C05          3.9970     2.7370     0.2660 ca         1 NJA      -0.004500
     11 C06          4.9530     3.5340     0.9170 ca         1 NJA      -0.126500
     12 C11          2.9780    -0.4240     1.3960 c3         1 NJA       0.225800
     13 C12          4.0340    -1.5730     1.3650 c3         1 NJA      -0.082700
     14 C14         -0.2130    -0.4080    -0.5890 c3         1 NJA       0.136300
     15 C16         -1.4220    -1.3900    -0.4960 c3         1 NJA       0.091700
     16 C25         -7.9200     1.6050     0.4100 c5         1 NJA       0.375300
     17 C27         -7.4490     3.1620    -1.2380 c5         1 NJA       0.154600
     18 C29         -1.3110    -2.6360    -1.4190 c3         1 NJA      -0.059100
     19 C30         -2.5060    -3.5770    -1.2960 ca         1 NJA      -0.090300
     20 C31         -2.5930    -4.4720    -0.2110 ca         1 NJA      -0.100000
     21 C32         -3.7000    -5.3300    -0.0860 ca         1 NJA      -0.105500
     22 C33         -4.7260    -5.2980    -1.0450 ca         1 NJA      -0.104000
     23 C34         -4.6450    -4.4080    -2.1300 ca         1 NJA      -0.105500
     24 C35         -3.5380    -3.5510    -2.2550 ca         1 NJA      -0.100000
     25 C36          6.9790     4.3690     3.1060 c3         1 NJA      -0.127100
     26 C37          7.3670     3.9960     1.6600 c3         1 NJA       0.208600
     27 C39          4.8680    -1.5670     2.6670 c3         1 NJA      -0.084600
     28 C40          3.4350    -2.9790     1.1130 c3         1 NJA      -0.084600
     29 N10          2.2410    -0.1230     0.1390 n3         1 NJA      -0.785500
     30 N17         -2.6780    -0.6730    -0.7510 ns         1 NJA      -0.482900
     31 O08          2.2230     1.4220    -1.8600 o          1 NJA      -0.546000
     32 O09          3.7860    -0.6170    -1.8440 o          1 NJA      -0.546000
     33 O15         -0.1660     0.1900    -1.9020 oh         1 NJA      -0.661000
     34 O19         -3.9140    -1.4040     1.0410 o          1 NJA      -0.530000
     35 O20         -4.7780     0.0070    -0.5740 os         1 NJA      -0.453100
     36 O23         -7.3020     1.2880     1.6740 os         1 NJA      -0.445000
     37 O28         -7.7320     3.0120     0.1630 os         1 NJA      -0.462000
     38 O38          7.6020     5.1970     0.9180 oh         1 NJA      -0.647000
     39 S07          3.1410     0.5120    -1.1670 sy         1 NJA       1.193600
     40 H131         0.9400    -1.7140     0.6560 h1         1 NJA       0.072200
     41 H132         1.4610    -1.7470    -1.0200 h1         1 NJA       0.072200
     42 H211        -6.4030    -0.9700     0.3650 h1         1 NJA       0.077700
     43 H222        -5.3340     1.8320     1.2540 h1         1 NJA       0.067700
     44 H241        -7.7100     0.2420    -1.3350 hc         1 NJA       0.078700
     45 H261        -5.4380     2.3720    -1.0430 hc         1 NJA       0.064200
     46 H262        -6.2420     1.8370    -2.5240 hc         1 NJA       0.064200
     47 H021         7.7320     1.6300     0.3210 ha         1 NJA       0.118000
     48 H031         6.0600     0.2250    -0.8250 ha         1 NJA       0.132000
     49 H051         2.9530     3.0490     0.2580 ha         1 NJA       0.132000
     50 H061         4.6310     4.4560     1.3940 ha         1 NJA       0.118000
     51 H112         2.2510    -0.6650     2.1840 h1         1 NJA       0.046700
     52 H111         3.4790     0.4850     1.7510 h1         1 NJA       0.046700
     53 H121         4.7380    -1.3730     0.5520 hc         1 NJA       0.077700
     54 H141        -0.3910     0.3750     0.1620 h1         1 NJA       0.090700
     55 H161        -1.4520    -1.7580     0.5390 h1         1 NJA       0.090700
     56 H251        -8.9840     1.3320     0.3940 h2         1 NJA       0.087700
     57 H272        -7.0650     4.1700    -1.4440 h1         1 NJA       0.049200
     58 H271        -8.3660     2.9940    -1.8200 h1         1 NJA       0.049200
     59 H291        -1.2000    -2.3060    -2.4590 hc         1 NJA       0.055200
     60 H292        -0.3960    -3.1900    -1.1790 hc         1 NJA       0.055200
     61 H311        -1.8050    -4.5000     0.5380 ha         1 NJA       0.108500
     62 H321        -3.7620    -6.0180     0.7540 ha         1 NJA       0.113000
     63 H331        -5.5840    -5.9610    -0.9480 ha         1 NJA       0.114000
     64 H341        -5.4400    -4.3810    -2.8720 ha         1 NJA       0.113000
     65 H351        -3.4860    -2.8610    -3.0940 ha         1 NJA       0.108500
     66 H363         6.7600     3.4650     3.6860 hc         1 NJA       0.046700
     67 H362         7.8040     4.8970     3.5990 hc         1 NJA       0.046700
     68 H361         6.0960     5.0180     3.1340 hc         1 NJA       0.046700
     69 H371         8.2970     3.4130     1.7160 h1         1 NJA       0.082700
     70 H392         4.2340    -1.7700     3.5390 hc         1 NJA       0.035200
     71 H391         5.6550    -2.3310     2.6300 hc         1 NJA       0.035200
     72 H393         5.3530    -0.5940     2.8130 hc         1 NJA       0.035200
     73 H402         2.6390    -3.2020     1.8340 hc         1 NJA       0.035200
     74 H401         3.0250    -3.0590     0.1000 hc         1 NJA       0.035200
     75 H403         4.2080    -3.7510     1.2090 hc         1 NJA       0.035200
     76 H171        -2.7360    -0.0820    -1.5700 hn         1 NJA       0.327500
     77 H151         0.6470     0.7570    -1.9170 ho         1 NJA       0.450000
     78 H381         6.7190     5.5660     0.7000 ho         1 NJA       0.442000
     79 C18         -3.8080    -0.7590     0.0090 c          1 NJA       0.642100
     80 H221        -5.5210     0.3810     2.2840 h1         1 NJA       0.067700
@<TRIPOS>BOND
     1     1    14 1   
     2     1    29 1   
     3     1    40 1   
     4     1    41 1   
     5     2     3 1   
     6     2     4 1   
     7     2    35 1   
     8     2    42 1   
     9     3    36 1   
    10     3    43 1   
    11     3    80 1   
    12     4     5 1   
    13     4    16 1   
    14     4    44 1   
    15     5    17 1   
    16     5    45 1   
    17     5    46 1   
    18     6     7 ar  
    19     6    11 ar  
    20     6    26 1   
    21     7     8 ar  
    22     7    47 1   
    23     8     9 ar  
    24     8    48 1   
    25     9    10 ar  
    26     9    39 1   
    27    10    11 ar  
    28    10    49 1   
    29    11    50 1   
    30    12    13 1   
    31    12    29 1   
    32    12    51 1   
    33    12    52 1   
    34    13    27 1   
    35    13    28 1   
    36    13    53 1   
    37    14    15 1   
    38    14    33 1   
    39    14    54 1   
    40    15    18 1   
    41    15    30 1   
    42    15    55 1   
    43    16    36 1   
    44    16    37 1   
    45    16    56 1   
    46    17    37 1   
    47    17    57 1   
    48    17    58 1   
    49    18    19 1   
    50    18    59 1   
    51    18    60 1   
    52    19    20 ar  
    53    19    24 ar  
    54    20    21 ar  
    55    20    61 1   
    56    21    22 ar  
    57    21    62 1   
    58    22    23 ar  
    59    22    63 1   
    60    23    24 ar  
    61    23    64 1   
    62    24    65 1   
    63    25    26 1   
    64    25    66 1   
    65    25    67 1   
    66    25    68 1   
    67    26    38 1   
    68    26    69 1   
    69    27    70 1   
    70    27    71 1   
    71    27    72 1   
    72    28    73 1   
    73    28    74 1   
    74    28    75 1   
    75    29    39 1   
    76    30    76 1   
    77    30    79 1   
    78    31    39 2   
    79    32    39 2   
    80    33    77 1   
    81    34    79 2   
    82    35    79 1   
    83    38    78 1   
@<TRIPOS>SUBSTRUCTURE
     1 NJA         1 TEMP              0 ****  ****    0 ROOT
