@<TRIPOS>MOLECULE
NJA
   80    83     1     0     0
SMALL
bcc


@<TRIPOS>ATOM
      1 C13          1.7920    -2.0010    -0.2830 c3         1 NJA       0.198800
      2 C21         -4.9970     0.3050     0.5020 c5         1 NJA       0.141100
      3 C22         -5.1670     0.5960     1.9920 c5         1 NJA       0.105400
      4 C24         -5.8480     1.4000    -0.1260 c5         1 NJA      -0.132700
      5 C26         -5.1840     2.7760    -0.2170 c5         1 NJA      -0.103400
      6 C01          4.6460     3.4630    -0.0520 ca         1 NJA      -0.055300
      7 C02          5.2780     2.5680     0.8090 ca         1 NJA      -0.144500
      8 C03          5.1840     1.2020     0.6170 ca         1 NJA      -0.022500
      9 C04          4.4240     0.7140    -0.4420 ca         1 NJA      -0.288500
     10 C05          3.8030     1.5870    -1.3210 ca         1 NJA      -0.022500
     11 C06          3.9240     2.9550    -1.1270 ca         1 NJA      -0.144500
     12 C11          3.2130    -1.5090     1.7180 c3         1 NJA       0.225800
     13 C12          3.9460    -2.6820     2.3720 c3         1 NJA      -0.082700
     14 C14          0.7230    -0.9140    -0.2470 c3         1 NJA       0.113100
     15 C16         -0.6800    -1.4970    -0.4590 c3         1 NJA       0.091700
     16 C25         -6.9490     1.6100     0.9260 c5         1 NJA       0.328900
     17 C27         -6.3270     3.7020     0.1590 c5         1 NJA       0.131400
     18 C29         -0.8550    -2.2120    -1.8110 c3         1 NJA      -0.059100
     19 C30         -2.2470    -2.7550    -1.9640 ca         1 NJA      -0.090300
     20 C31         -2.5890    -3.9890    -1.4140 ca         1 NJA      -0.118000
     21 C32         -3.8910    -4.4610    -1.4820 ca         1 NJA      -0.123500
     22 C33         -4.8770    -3.7010    -2.0980 ca         1 NJA      -0.122000
     23 C34         -4.5470    -2.4740    -2.6550 ca         1 NJA      -0.123500
     24 C35         -3.2400    -2.0080    -2.5910 ca         1 NJA      -0.118000
     25 C36          3.9100     5.3370     1.4240 c3         1 NJA      -0.127100
     26 C37          4.7560     4.9510     0.2140 c3         1 NJA       0.185400
     27 C39          3.8530    -2.5300     3.8870 c3         1 NJA      -0.084600
     28 C40          3.4050    -4.0310     1.9190 c3         1 NJA      -0.084600
     29 N10          3.0730    -1.5800     0.2660 n3         1 NJA      -0.785500
     30 N17         -1.6540    -0.4380    -0.3180 ns         1 NJA      -0.549900
     31 O08          3.9050    -1.2810    -2.0680 o          1 NJA      -0.616800
     32 O09          5.5380    -1.6020    -0.1900 o          1 NJA      -0.616800
     33 O15          1.0010     0.1440    -1.1310 oh         1 NJA      -0.598800
     34 O19         -3.1260    -1.5470     1.0240 o          1 NJA      -0.579000
     35 O20         -3.6690     0.3950     0.0210 os         1 NJA      -0.429900
     36 O23         -6.5290     0.9670     2.1020 os         1 NJA      -0.398600
     37 O28         -7.0820     2.9890     1.1290 os         1 NJA      -0.415600
     38 O38          4.4460     5.7310    -0.9150 oh         1 NJA      -0.584800
     39 S07          4.2910    -1.0370    -0.6850 sy         1 NJA       1.335200
     40 H131         1.4580    -2.8570     0.3080 h1         1 NJA       0.072200
     41 H132         1.9370    -2.3810    -1.2940 h1         1 NJA       0.072200
     42 H211        -5.4150    -0.6770     0.2640 h1         1 NJA       0.077700
     43 H222        -4.4910     1.4020     2.3080 h1         1 NJA       0.067700
     44 H241        -6.2630     1.1010    -1.0890 hc         1 NJA       0.078700
     45 H261        -4.3670     2.8810     0.5000 hc         1 NJA       0.064200
     46 H262        -4.7850     2.9870    -1.2080 hc         1 NJA       0.064200
     47 H021         5.8680     2.9420     1.6380 ha         1 NJA       0.136000
     48 H031         5.7170     0.5330     1.2780 ha         1 NJA       0.150000
     49 H051         3.2480     1.2220    -2.1720 ha         1 NJA       0.150000
     50 H061         3.4500     3.6190    -1.8380 ha         1 NJA       0.136000
     51 H112         2.1990    -1.4470     2.1210 h1         1 NJA       0.046700
     52 H111         3.6870    -0.5670     2.0090 h1         1 NJA       0.046700
     53 H121         5.0000    -2.6240     2.0880 hc         1 NJA       0.077700
     54 H141         0.7190    -0.4640     0.7520 h1         1 NJA       0.090700
     55 H161        -0.8580    -2.2150     0.3440 h1         1 NJA       0.090700
     56 H251        -7.9210     1.1870     0.6530 h2         1 NJA       0.087700
     57 H272        -5.9940     4.6440     0.5980 h1         1 NJA       0.049200
     58 H271        -6.9480     3.9360    -0.7140 h1         1 NJA       0.049200
     59 H291        -0.6480    -1.5100    -2.6240 hc         1 NJA       0.055200
     60 H292        -0.1270    -3.0220    -1.8920 hc         1 NJA       0.055200
     61 H311        -1.8280    -4.5830    -0.9200 ha         1 NJA       0.126500
     62 H321        -4.1380    -5.4230    -1.0520 ha         1 NJA       0.131000
     63 H331        -5.8950    -4.0670    -2.1490 ha         1 NJA       0.132000
     64 H341        -5.3080    -1.8770    -3.1440 ha         1 NJA       0.131000
     65 H351        -2.9910    -1.0510    -3.0340 ha         1 NJA       0.126500
     66 H363         4.2300     4.7970     2.3140 hc         1 NJA       0.046700
     67 H362         4.0010     6.4040     1.6270 hc         1 NJA       0.046700
     68 H361         2.8570     5.1030     1.2560 hc         1 NJA       0.046700
     69 H371         5.8030     5.1680     0.4440 h1         1 NJA       0.082700
     70 H392         2.8180    -2.6130     4.2280 hc         1 NJA       0.035200
     71 H391         4.4300    -3.3060     4.3900 hc         1 NJA       0.035200
     72 H393         4.2370    -1.5640     4.2200 hc         1 NJA       0.035200
     73 H402         2.3450    -4.1390     2.1630 hc         1 NJA       0.035200
     74 H401         3.5220    -4.1710     0.8430 hc         1 NJA       0.035200
     75 H403         3.9380    -4.8430     2.4140 hc         1 NJA       0.035200
     76 H171        -1.5800     0.3310    -0.9680 hn         1 NJA       0.327500
     77 H151         1.1680    -0.2090    -2.0110 ho         1 NJA       0.411000
     78 H381         3.4890     5.7990    -0.9960 ho         1 NJA       0.403000
     79 C18         -2.8390    -0.6220     0.2970 c          1 NJA       0.758100
     80 H221        -4.9910    -0.2690     2.6300 h1         1 NJA       0.067700
@<TRIPOS>BOND
     1     1    14 1   
     2     1    29 1   
     3     1    40 1   
     4     1    41 1   
     5     2     3 1   
     6     2     4 1   
     7     2    35 1   
     8     2    42 1   
     9     3    36 1   
    10     3    43 1   
    11     3    80 1   
    12     4     5 1   
    13     4    16 1   
    14     4    44 1   
    15     5    17 1   
    16     5    45 1   
    17     5    46 1   
    18     6     7 ar  
    19     6    11 ar  
    20     6    26 1   
    21     7     8 ar  
    22     7    47 1   
    23     8     9 ar  
    24     8    48 1   
    25     9    10 ar  
    26     9    39 1   
    27    10    11 ar  
    28    10    49 1   
    29    11    50 1   
    30    12    13 1   
    31    12    29 1   
    32    12    51 1   
    33    12    52 1   
    34    13    27 1   
    35    13    28 1   
    36    13    53 1   
    37    14    15 1   
    38    14    33 1   
    39    14    54 1   
    40    15    18 1   
    41    15    30 1   
    42    15    55 1   
    43    16    36 1   
    44    16    37 1   
    45    16    56 1   
    46    17    37 1   
    47    17    57 1   
    48    17    58 1   
    49    18    19 1   
    50    18    59 1   
    51    18    60 1   
    52    19    20 ar  
    53    19    24 ar  
    54    20    21 ar  
    55    20    61 1   
    56    21    22 ar  
    57    21    62 1   
    58    22    23 ar  
    59    22    63 1   
    60    23    24 ar  
    61    23    64 1   
    62    24    65 1   
    63    25    26 1   
    64    25    66 1   
    65    25    67 1   
    66    25    68 1   
    67    26    38 1   
    68    26    69 1   
    69    27    70 1   
    70    27    71 1   
    71    27    72 1   
    72    28    73 1   
    73    28    74 1   
    74    28    75 1   
    75    29    39 1   
    76    30    76 1   
    77    30    79 1   
    78    31    39 2   
    79    32    39 2   
    80    33    77 1   
    81    34    79 2   
    82    35    79 1   
    83    38    78 1   
@<TRIPOS>SUBSTRUCTURE
     1 NJA         1 TEMP              0 ****  ****    0 ROOT
