@<TRIPOS>MOLECULE
NJB
   62    67     1     0     0
SMALL
bcc


@<TRIPOS>ATOM
      1 CL1         47.4670    -5.8990    30.6730 cl         1 NJB      -0.082400
      2 CBK         48.8590    -6.5990    29.9310 ca         1 NJB       0.037400
      3 CBJ         49.4900    -7.6780    30.5260 ca         1 NJB      -0.118000
      4 CBI         50.6110    -8.2290    29.9220 ca         1 NJB      -0.112000
      5 CBH         51.0960    -7.7070    28.7320 ca         1 NJB      -0.124000
      6 CBG         50.4530    -6.6320    28.1370 ca         1 NJB      -0.099000
      7 CBF         49.3320    -6.0780    28.7330 ca         1 NJB       0.019800
      8 NBE         48.7000    -4.9540    28.1500 na         1 NJB      -0.264800
      9 CAJ         47.5030    -4.8680    27.4980 cc         1 NJB       0.366500
     10 CAG         46.6310    -5.9890    27.1620 ca         1 NJB       0.329300
     11 CAH         45.3270    -5.7580    26.7410 ca         1 NJB      -0.153300
     12 CAI         44.5190    -6.8360    26.4200 ca         1 NJB      -0.195000
     13 NAF         47.1320    -7.2170    27.2650 nb         1 NJB      -0.638000
     14 CAE         46.3700    -8.2460    26.9650 ca         1 NJB       0.373200
     15 CAD         45.0440    -8.1200    26.5320 ca         1 NJB       0.043800
     16 OAC         44.3900    -9.2530    26.2610 os         1 NJB      -0.315900
     17 CAB         43.0410    -9.1780    25.8070 c3         1 NJB       0.140400
     18 CAA         42.5650   -10.5800    25.5210 c3         1 NJB      -0.095100
     19 NAK         47.2550    -3.6190    27.2230 nd         1 NJB      -0.360000
     20 NAL         48.2740    -2.8690    27.7020 nd         1 NJB      -0.349000
     21 CAM         49.1370    -3.6650    28.2610 cc         1 NJB       0.407800
     22 CAN         50.4210    -3.2920    28.9000 cy         1 NJB      -0.117000
     23 CAQ         50.5990    -1.7750    29.1190 cy         1 NJB      -0.088900
     24 CAO         51.6160    -3.2390    27.9070 cy         1 NJB      -0.088900
     25 CAP         51.4320    -1.7190    27.8240 cy         1 NJB       0.101700
     26 NAR         52.6390    -0.9420    27.7970 ns         1 NJB      -0.552900
     27 CAS         52.6330     0.3740    27.5810 c          1 NJB       0.675700
     28 OAT         51.6120     1.0130    27.3580 o          1 NJB      -0.608100
     29 CAU         53.9680     1.0830    27.6090 ca         1 NJB      -0.155900
     30 CAV         55.2330     0.4850    27.8830 ca         1 NJB       0.319300
     31 NAW         55.3360    -0.8340    28.1600 nb         1 NJB      -0.697000
     32 CAX         56.5110    -1.3490    28.4060 ca         1 NJB       0.437200
     33 CAY         57.7040    -0.6030    28.4010 ca         1 NJB      -0.251300
     34 CAZ         57.6350     0.7320    28.1270 ca         1 NJB      -0.114300
     35 CBA         56.3790     1.3190    27.8580 ca         1 NJB       0.279300
     36 NBB         56.3280     2.6420    27.5920 nb         1 NJB      -0.641000
     37 CBC         55.1580     3.1640    27.3480 ca         1 NJB       0.411200
     38 CBD         53.9580     2.4270    27.3450 ca         1 NJB      -0.185300
     39 HBJ         49.1130    -8.0800    31.4570 ha         1 NJB       0.151000
     40 HBI         51.1060    -9.0690    30.3900 ha         1 NJB       0.139000
     41 HBH         51.9690    -8.1370    28.2620 ha         1 NJB       0.140000
     42 HBG         50.8110    -6.2250    27.2010 ha         1 NJB       0.149000
     43 HAH         44.9430    -4.7510    26.6680 ha         1 NJB       0.167000
     44 HAI         43.5040    -6.6570    26.0950 ha         1 NJB       0.145000
     45 HAF         46.8090    -9.2340    27.0640 h4         1 NJB       0.033100
     46 HAD         42.4160    -8.7050    26.5730 h1         1 NJB       0.037700
     47 HAE         42.9850    -8.5620    24.9040 h1         1 NJB       0.037700
     48 HAC         41.5320   -10.5450    25.1750 hc         1 NJB       0.049700
     49 HAA         43.1630   -11.0520    24.7410 hc         1 NJB       0.049700
     50 HAB         42.5980   -11.2040    26.4140 hc         1 NJB       0.049700
     51 HAN         50.5900    -3.9160    29.7780 hc         1 NJB       0.074700
     52 HAS         51.2130    -1.5860    29.9990 hc         1 NJB       0.064450
     53 HAR         49.7020    -1.1600    29.1650 hc         1 NJB       0.064450
     54 HAP         51.5400    -3.8050    26.9790 hc         1 NJB       0.064450
     55 HAO         52.5420    -3.5170    28.4130 hc         1 NJB       0.064450
     56 HAQ         50.8010    -1.4460    26.9760 h1         1 NJB       0.095700
     57 HBK         53.5310    -1.3730    28.0290 hn         1 NJB       0.355500
     58 HAX         56.5390    -2.4110    28.6210 h4         1 NJB       0.021100
     59 HAY         58.6450    -1.0910    28.6130 ha         1 NJB       0.149000
     60 HAZ         58.5170     1.3580    28.1080 ha         1 NJB       0.158000
     61 HBC         55.1260     4.2270    27.1370 h4         1 NJB       0.029100
     62 HBD         53.0290     2.9370    27.1320 ha         1 NJB       0.175000
@<TRIPOS>BOND
     1     1     2 1   
     2     2     3 ar  
     3     2     7 ar  
     4     3     4 ar  
     5     3    39 1   
     6     4     5 ar  
     7     4    40 1   
     8     5     6 ar  
     9     5    41 1   
    10     6     7 ar  
    11     6    42 1   
    12     7     8 1   
    13     8     9 1   
    14     8    21 1   
    15     9    10 1   
    16     9    19 2   
    17    10    11 ar  
    18    10    13 ar  
    19    11    12 ar  
    20    11    43 1   
    21    12    15 ar  
    22    12    44 1   
    23    13    14 ar  
    24    14    15 ar  
    25    14    45 1   
    26    15    16 1   
    27    16    17 1   
    28    17    18 1   
    29    17    46 1   
    30    17    47 1   
    31    18    48 1   
    32    18    49 1   
    33    18    50 1   
    34    19    20 1   
    35    20    21 2   
    36    21    22 1   
    37    22    23 1   
    38    22    24 1   
    39    22    51 1   
    40    23    25 1   
    41    23    52 1   
    42    23    53 1   
    43    24    25 1   
    44    24    54 1   
    45    24    55 1   
    46    25    26 1   
    47    25    56 1   
    48    26    27 1   
    49    26    57 1   
    50    27    28 2   
    51    27    29 1   
    52    29    30 ar  
    53    29    38 ar  
    54    30    31 ar  
    55    30    35 ar  
    56    31    32 ar  
    57    32    33 ar  
    58    32    58 1   
    59    33    34 ar  
    60    33    59 1   
    61    34    35 ar  
    62    34    60 1   
    63    35    36 ar  
    64    36    37 ar  
    65    37    38 ar  
    66    37    61 1   
    67    38    62 1   
@<TRIPOS>SUBSTRUCTURE
     1 NJB         1 TEMP              0 ****  ****    0 ROOT
