@<TRIPOS>MOLECULE
NJB
   62    67     1     0     0
SMALL
No Charge or Current Charge


@<TRIPOS>ATOM
      1 Cl1         47.9330    -5.9140    31.2140 cl         1 NJB      -0.174000
      2 CBK         49.1250    -6.5930    30.1040 ca         1 NJB       0.129000
      3 CBJ         49.8460    -7.7340    30.4950 ca         1 NJB      -0.100000
      4 CBI         50.8040    -8.2950    29.6330 ca         1 NJB      -0.094000
      5 CBH         51.0410    -7.7150    28.3760 ca         1 NJB      -0.106000
      6 CBG         50.3220    -6.5730    27.9800 ca         1 NJB      -0.081000
      7 CBF         49.3620    -6.0050    28.8400 ca         1 NJB       0.019800
      8 NBE         48.6710    -4.8640    28.4320 na         1 NJB      -0.264800
      9 CAJ         47.4170    -4.8320    27.8550 cc         1 NJB       0.366500
     10 CAG         46.6030    -5.9760    27.3550 ca         1 NJB       0.264000
     11 CAH         45.3190    -5.7240    26.8090 ca         1 NJB      -0.070000
     12 CAI         44.5260    -6.7840    26.3280 ca         1 NJB      -0.177000
     13 NAF         47.0920    -7.2490    27.4210 nb         1 NJB      -0.638000
     14 CAE         46.3280    -8.2700    26.9580 ca         1 NJB       0.307900
     15 CAD         45.0420    -8.0930    26.4040 ca         1 NJB       0.109100
     16 OAC         44.3400    -9.2000    25.9590 os         1 NJB      -0.339100
     17 CAB         43.0270    -9.0910    25.3850 c3         1 NJB       0.163600
     18 CAA         42.5660   -10.5090    25.0110 c3         1 NJB      -0.095100
     19 NAK         47.0530    -3.5530    27.8160 nd         1 NJB      -0.360000
     20 NAL         48.0430    -2.7900    28.4060 nd         1 NJB      -0.349000
     21 CAM         49.0180    -3.5940    28.8050 cc         1 NJB       0.407800
     22 CAN         50.2520    -3.1440    29.5440 cy         1 NJB      -0.117000
     23 CAQ         50.6410    -1.6240    29.6460 cy         1 NJB      -0.088900
     24 CAO         51.6720    -3.3090    28.8930 cy         1 NJB      -0.088900
     25 CAP         51.4710    -1.8610    28.3430 cy         1 NJB       0.101700
     26 NAR         52.6250    -1.0480    28.0830 ns         1 NJB      -0.485900
     27 CAS         52.5950     0.2160    27.5440 c          1 NJB       0.608700
     28 OAT         51.5250     0.7270    27.2350 o          1 NJB      -0.608100
     29 CAU         53.9140     0.9500    27.3430 ca         1 NJB      -0.090600
     30 CAV         55.2010     0.4280    27.6750 ca         1 NJB       0.254000
     31 NAW         55.3540    -0.8150    28.2170 nb         1 NJB      -0.697000
     32 CAX         56.5920    -1.2690    28.5160 ca         1 NJB       0.371900
     33 CAY         57.7460    -0.5110    28.2920 ca         1 NJB      -0.168000
     34 CAZ         57.6180     0.7700    27.7360 ca         1 NJB      -0.031000
     35 CBA         56.3410     1.2680    27.4150 ca         1 NJB       0.214000
     36 NBB         56.2510     2.5100    26.8790 nb         1 NJB      -0.641000
     37 CBC         55.0280     2.9860    26.5720 ca         1 NJB       0.345900
     38 CBD         53.8570     2.2510    26.7850 ca         1 NJB      -0.102000
     39 HBJ         49.6610    -8.1830    31.4680 ha         1 NJB       0.133000
     40 HBI         51.3600    -9.1790    29.9390 ha         1 NJB       0.121000
     41 HBH         51.7810    -8.1500    27.7070 ha         1 NJB       0.122000
     42 HBG         50.5090    -6.1310    27.0040 ha         1 NJB       0.131000
     43 HAH         44.9360    -4.7080    26.7580 ha         1 NJB       0.149000
     44 HAI         43.5440    -6.5730    25.9130 ha         1 NJB       0.127000
     45 HAF         46.7620    -9.2660    27.0340 h4         1 NJB       0.033100
     46 HAD         42.3210    -8.6560    26.1040 h1         1 NJB       0.037700
     47 HAE         43.0450    -8.4640    24.4840 h1         1 NJB       0.037700
     48 HAC         41.5650   -10.4780    24.5670 hc         1 NJB       0.049700
     49 HAA         43.2520   -10.9580    24.2820 hc         1 NJB       0.049700
     50 HAB         42.5290   -11.1500    25.9000 hc         1 NJB       0.049700
     51 HAN         50.1580    -3.6330    30.5200 hc         1 NJB       0.074700
     52 HAS         51.2410    -1.3640    30.5260 hc         1 NJB       0.064450
     53 HAR         49.8210    -0.9030    29.5630 hc         1 NJB       0.064450
     54 HAP         51.7700    -4.0930    28.1350 hc         1 NJB       0.064450
     55 HAO         52.4940    -3.4170    29.6110 hc         1 NJB       0.064450
     56 HAQ         50.8430    -1.8480    27.4420 h1         1 NJB       0.095700
     57 HBK         53.5570    -1.3900    28.3060 hn         1 NJB       0.355500
     58 HAX         56.6550    -2.2670    28.9460 h4         1 NJB       0.021100
     59 HAY         58.7210    -0.9150    28.5470 ha         1 NJB       0.131000
     60 HAZ         58.5010     1.3770    27.5530 ha         1 NJB       0.140000
     61 HBC         54.9870     3.9860    26.1430 h4         1 NJB       0.029100
     62 HBD         52.9090     2.7040    26.5110 ha         1 NJB       0.157000
@<TRIPOS>BOND
     1     1     2 1   
     2     2     3 ar  
     3     2     7 ar  
     4     3     4 ar  
     5     3    39 1   
     6     4     5 ar  
     7     4    40 1   
     8     5     6 ar  
     9     5    41 1   
    10     6     7 ar  
    11     6    42 1   
    12     7     8 1   
    13     8     9 1   
    14     8    21 1   
    15     9    10 1   
    16     9    19 2   
    17    10    11 ar  
    18    10    13 ar  
    19    11    12 ar  
    20    11    43 1   
    21    12    15 ar  
    22    12    44 1   
    23    13    14 ar  
    24    14    15 ar  
    25    14    45 1   
    26    15    16 1   
    27    16    17 1   
    28    17    18 1   
    29    17    46 1   
    30    17    47 1   
    31    18    48 1   
    32    18    49 1   
    33    18    50 1   
    34    19    20 1   
    35    20    21 2   
    36    21    22 1   
    37    22    23 1   
    38    22    24 1   
    39    22    51 1   
    40    23    25 1   
    41    23    52 1   
    42    23    53 1   
    43    24    25 1   
    44    24    54 1   
    45    24    55 1   
    46    25    26 1   
    47    25    56 1   
    48    26    27 1   
    49    26    57 1   
    50    27    28 2   
    51    27    29 1   
    52    29    30 ar  
    53    29    38 ar  
    54    30    31 ar  
    55    30    35 ar  
    56    31    32 ar  
    57    32    33 ar  
    58    32    58 1   
    59    33    34 ar  
    60    33    59 1   
    61    34    35 ar  
    62    34    60 1   
    63    35    36 ar  
    64    36    37 ar  
    65    37    38 ar  
    66    37    61 1   
    67    38    62 1   
@<TRIPOS>SUBSTRUCTURE
     1 NJB         1 TEMP              0 ****  ****    0 ROOT
