@<TRIPOS>MOLECULE
NJD
   50    54     1     0     0
SMALL
No Charge or Current Charge


@<TRIPOS>ATOM
      1 CAJ         -5.2670     1.4690    -0.6350 ca         1 NJD      -0.084000
      2 CBA         -6.6320     1.1480    -0.6140 ca         1 NJD      -0.212900
      3 CAH         -7.7850     1.7860    -1.2000 cc         1 NJD       0.349800
      4 NAM         -8.9180     1.1230    -0.9120 nd         1 NJD      -0.514100
      5 NAT         -8.4740     0.0460    -0.1300 na         1 NJD      -0.060400
      6 CBB         -7.1070     0.0630     0.0470 ca         1 NJD      -0.053200
      7 CAG         -6.2660    -0.8030     0.7530 ca         1 NJD      -0.119000
      8 CAD         -4.8820    -0.5120     0.7530 ca         1 NJD      -0.064000
      9 CAV         -4.3700     0.6160     0.0510 ca         1 NJD       0.274000
     10 NAR         -3.0030     0.9410     0.0400 nu         1 NJD      -0.933900
     11 CAY         -1.8320     0.2270     0.1900 ca         1 NJD       0.460900
     12 NAN         -0.7220     0.9670     0.2230 nb         1 NJD      -0.377000
     13 NAP         -1.8860    -1.1080     0.2660 nb         1 NJD      -0.383000
     14 CAZ         -0.6930    -1.7270     0.3970 ca         1 NJD       0.427300
     15 OAU         -0.6460    -3.1010     0.4870 os         1 NJD      -0.432300
     16 CAA         -1.8480    -3.8970     0.4440 c3         1 NJD       0.165900
     17 NAO          0.4840    -1.0780     0.4470 nb         1 NJD      -0.321000
     18 CAX          0.4010     0.2570     0.3540 ca         1 NJD       0.451900
     19 NAQ          1.5670     0.9920     0.3950 nu         1 NJD      -0.917100
     20 CAK          2.9430     0.4790     0.5370 c3         1 NJD       0.237800
     21 CAL          3.9730     1.6280     0.5340 c3         1 NJD      -0.017200
     22 CAW          5.3920     1.1400     0.6710 cc         1 NJD      -0.146400
     23 CBD          6.1560     0.4340    -0.3180 ca         1 NJD      -0.094800
     24 CAF          5.8180     0.0480    -1.6240 ca         1 NJD      -0.060000
     25 CAC          6.7860    -0.6450    -2.3810 ca         1 NJD      -0.139000
     26 CAB          8.0560    -0.9310    -1.8250 ca         1 NJD      -0.090000
     27 CAE          8.3650    -0.5250    -0.5100 ca         1 NJD      -0.129000
     28 CBC          7.3830     0.1610     0.2180 ca         1 NJD      -0.045200
     29 NAS          7.4730     0.6510     1.5080 na         1 NJD      -0.222700
     30 CAI          6.2240     1.2620     1.7800 cd         1 NJD      -0.150100
     31 H1          -4.9110     2.3440    -1.1720 ha         1 NJD       0.121000
     32 H2          -7.8670     2.6780    -1.8080 h4         1 NJD       0.049800
     33 H4          -6.6600    -1.6630     1.2890 ha         1 NJD       0.121000
     34 H5          -4.2160    -1.1570     1.3160 ha         1 NJD       0.137000
     35 H6          -2.8120     1.9110    -0.2080 hn         1 NJD       0.511000
     36 H7          -2.3840    -3.7470    -0.5020 h1         1 NJD       0.048700
     37 H8          -1.6020    -4.9630     0.5290 h1         1 NJD       0.048700
     38 H9          -2.5200    -3.6360     1.2720 h1         1 NJD       0.048700
     39 H10          1.4370     2.0010     0.3230 hn         1 NJD       0.506000
     40 H11          3.0410    -0.0820     1.4770 h1         1 NJD       0.062700
     41 H12          3.1730    -0.2120    -0.2860 h1         1 NJD       0.062700
     42 H13          3.8740     2.1990    -0.3980 hc         1 NJD       0.047200
     43 H14          3.7420     2.3200     1.3530 hc         1 NJD       0.047200
     44 H15          4.8410     0.2770    -2.0440 ha         1 NJD       0.115000
     45 H16          6.5560    -0.9590    -3.3960 ha         1 NJD       0.112000
     46 H17          8.7980    -1.4650    -2.4150 ha         1 NJD       0.110000
     47 H18          9.3390    -0.7380    -0.0750 ha         1 NJD       0.112000
     48 H19          8.2720     0.5860     2.1320 hn         1 NJD       0.351000
     49 H20          6.0170     1.7310     2.7390 h4         1 NJD       0.212000
     50 H3          -9.1220    -0.6470     0.2450 hn         1 NJD       0.376000
@<TRIPOS>BOND
     1     1     2 ar  
     2     1     9 ar  
     3     1    31 1   
     4     2     3 1   
     5     2     6 ar  
     6     3     4 2   
     7     3    32 1   
     8     4     5 1   
     9     5     6 1   
    10     5    50 1   
    11     6     7 ar  
    12     7     8 ar  
    13     7    33 1   
    14     8     9 ar  
    15     8    34 1   
    16     9    10 1   
    17    10    11 1   
    18    10    35 1   
    19    11    12 ar  
    20    11    13 ar  
    21    12    18 ar  
    22    13    14 ar  
    23    14    15 1   
    24    14    17 ar  
    25    15    16 1   
    26    16    36 1   
    27    16    37 1   
    28    16    38 1   
    29    17    18 ar  
    30    18    19 1   
    31    19    20 1   
    32    19    39 1   
    33    20    21 1   
    34    20    40 1   
    35    20    41 1   
    36    21    22 1   
    37    21    42 1   
    38    21    43 1   
    39    22    23 1   
    40    22    30 2   
    41    23    24 ar  
    42    23    28 ar  
    43    24    25 ar  
    44    24    44 1   
    45    25    26 ar  
    46    25    45 1   
    47    26    27 ar  
    48    26    46 1   
    49    27    28 ar  
    50    27    47 1   
    51    28    29 1   
    52    29    30 1   
    53    29    48 1   
    54    30    49 1   
@<TRIPOS>SUBSTRUCTURE
     1 NJD         1 TEMP              0 ****  ****    0 ROOT
