@<TRIPOS>MOLECULE
NJD
   50    54     1     0     0
SMALL
bcc


@<TRIPOS>ATOM
      1 CAJ         -5.1620     1.4020    -0.6220 ca         1 NJD      -0.102000
      2 CBA         -6.4850     0.9550    -0.7300 ca         1 NJD      -0.212900
      3 CAH         -7.6500     1.3810    -1.4220 cc         1 NJD       0.349800
      4 NAM         -8.6530     0.5700    -1.1860 nd         1 NJD      -0.514100
      5 NAT         -8.2000    -0.3770    -0.3650 na         1 NJD      -0.010100
      6 CBB         -6.8950    -0.2020    -0.0490 ca         1 NJD      -0.053200
      7 CAG         -6.0150    -0.9210     0.7670 ca         1 NJD      -0.137000
      8 CAD         -4.7270    -0.4570     0.8780 ca         1 NJD      -0.082000
      9 CAV         -4.2880     0.6940     0.1770 ca         1 NJD       0.135600
     10 NAR         -2.9830     1.1920     0.3270 nu         1 NJD      -0.740300
     11 CAY         -1.8220     0.5020     0.3830 ca         1 NJD       0.986900
     12 NAN         -0.7170     1.2320     0.4500 nb         1 NJD      -0.903000
     13 NAP         -1.8670    -0.8320     0.3640 nb         1 NJD      -0.909000
     14 CAZ         -0.6840    -1.4100     0.4310 ca         1 NJD       0.953300
     15 OAU         -0.6160    -2.7290     0.4280 os         1 NJD      -0.409100
     16 CAA         -1.8300    -3.4710     0.3500 c3         1 NJD       0.142700
     17 NAO          0.4910    -0.8100     0.5020 nb         1 NJD      -0.847000
     18 CAX          0.4180     0.5250     0.5010 ca         1 NJD       0.977900
     19 NAQ          1.5620     1.2110     0.5530 nu         1 NJD      -0.861900
     20 CAK          2.8710     0.6030     0.6450 c3         1 NJD       0.237800
     21 CAL          3.9540     1.6770     0.6010 c3         1 NJD      -0.017200
     22 CAW          5.3200     1.0790     0.6700 cc         1 NJD      -0.146400
     23 CBD          5.9920     0.3550    -0.3700 ca         1 NJD      -0.094800
     24 CAF          5.6600     0.0240    -1.6890 ca         1 NJD      -0.078000
     25 CAC          6.5600    -0.7020    -2.4430 ca         1 NJD      -0.157000
     26 CAB          7.7930    -1.1080    -1.9050 ca         1 NJD      -0.108000
     27 CAE          8.1500    -0.7930    -0.6080 ca         1 NJD      -0.147000
     28 CBC          7.2390    -0.0590     0.1500 ca         1 NJD      -0.045200
     29 NAS          7.3130     0.3940     1.4340 na         1 NJD      -0.172400
     30 CAI          6.1660     1.0710     1.7420 cd         1 NJD      -0.100100
     31 H1          -4.8310     2.2860    -1.1540 ha         1 NJD       0.139000
     32 H2          -7.7740     2.2360    -2.0690 h4         1 NJD       0.049800
     33 H4          -6.3320    -1.8040     1.3050 ha         1 NJD       0.139000
     34 H5          -4.0340    -0.9850     1.5140 ha         1 NJD       0.155000
     35 H6          -2.8690     2.1890     0.2310 hn         1 NJD       0.455800
     36 H7          -2.3820    -3.2460    -0.5620 h1         1 NJD       0.048700
     37 H8          -1.5340    -4.5170     0.3470 h1         1 NJD       0.048700
     38 H9          -2.4740    -3.2790     1.2080 h1         1 NJD       0.048700
     39 H10          1.4860     2.2150     0.5830 hn         1 NJD       0.450800
     40 H11          2.9630     0.0280     1.5700 h1         1 NJD       0.062700
     41 H12          3.0100    -0.1010    -0.1790 h1         1 NJD       0.062700
     42 H13          3.8450     2.2610    -0.3190 hc         1 NJD       0.047200
     43 H14          3.8130     2.3720     1.4330 hc         1 NJD       0.047200
     44 H15          4.7120     0.3340    -2.1140 ha         1 NJD       0.133000
     45 H16          6.3160    -0.9670    -3.4640 ha         1 NJD       0.130000
     46 H17          8.4780    -1.6790    -2.5190 ha         1 NJD       0.128000
     47 H18          9.1020    -1.1060    -0.1980 ha         1 NJD       0.130000
     48 H19          8.0820     0.2490     2.0660 hn         1 NJD       0.300700
     49 H20          6.0340     1.5090     2.7200 h4         1 NJD       0.162000
     50 H3          -8.8220    -1.1030    -0.0470 hn         1 NJD       0.325700
@<TRIPOS>BOND
     1     1     2 ar  
     2     1     9 ar  
     3     1    31 1   
     4     2     3 1   
     5     2     6 ar  
     6     3     4 2   
     7     3    32 1   
     8     4     5 1   
     9     5     6 1   
    10     5    50 1   
    11     6     7 ar  
    12     7     8 ar  
    13     7    33 1   
    14     8     9 ar  
    15     8    34 1   
    16     9    10 1   
    17    10    11 1   
    18    10    35 1   
    19    11    12 ar  
    20    11    13 ar  
    21    12    18 ar  
    22    13    14 ar  
    23    14    15 1   
    24    14    17 ar  
    25    15    16 1   
    26    16    36 1   
    27    16    37 1   
    28    16    38 1   
    29    17    18 ar  
    30    18    19 1   
    31    19    20 1   
    32    19    39 1   
    33    20    21 1   
    34    20    40 1   
    35    20    41 1   
    36    21    22 1   
    37    21    42 1   
    38    21    43 1   
    39    22    23 1   
    40    22    30 2   
    41    23    24 ar  
    42    23    28 ar  
    43    24    25 ar  
    44    24    44 1   
    45    25    26 ar  
    46    25    45 1   
    47    26    27 ar  
    48    26    46 1   
    49    27    28 ar  
    50    27    47 1   
    51    28    29 1   
    52    29    30 1   
    53    29    48 1   
    54    30    49 1   
@<TRIPOS>SUBSTRUCTURE
     1 NJD         1 TEMP              0 ****  ****    0 ROOT
