@<TRIPOS>MOLECULE
NJE
   36    37     1     0     0
SMALL
abcg2


@<TRIPOS>ATOM
      1 N1           8.4410     0.0090    20.9020 ns         1 NJE      -0.159000
      2 C4           8.2280     0.7290    18.5670 ca         1 NJE       0.327900
      3 C5           7.6590     0.3830    19.7940 ca         1 NJE      -0.077000
      4 C6           9.7070     0.4140    21.2080 c          1 NJE       0.596100
      5 C7          10.1930    -0.0810    22.5680 c3         1 NJE       0.093800
      6 C8          11.8870    -1.5920    21.7740 c6         1 NJE       0.167300
      7 C10         13.9830    -1.9920    23.1020 c6         1 NJE      -0.076400
      8 O           10.3800     1.1410    20.4920 o          1 NJE      -0.551100
      9 N            7.5070     1.0690    17.4970 nb         1 NJE      -0.645000
     10 C3           6.1770     1.0660    17.6140 ca         1 NJE       0.313900
     11 C2           5.5260     0.7250    18.7910 ca         1 NJE      -0.143000
     12 C1           6.2600     0.3740    19.9190 ca         1 NJE      -0.088300
     13 C            5.5850     0.0100    21.2080 c3         1 NJE      -0.050800
     14 N2          11.6050    -0.3960    22.5710 n3         1 NJE      -0.699600
     15 C12         12.1140    -0.5310    23.9370 c6         1 NJE       0.167300
     16 C11         13.6200    -0.7670    23.9410 c6         1 NJE      -0.074400
     17 C9          13.3830    -1.8680    21.7020 c6         1 NJE      -0.074400
     18 H1           7.9830    -0.5610    21.5970 hn         1 NJE       0.149000
     19 H2           9.3020     0.7300    18.4550 h4         1 NJE       0.048100
     20 H3          10.0110     0.7360    23.2730 h1         1 NJE       0.045700
     21 H4           9.5760    -0.9330    22.8990 h1         1 NJE       0.045700
     22 H6          11.3690    -2.4680    22.2050 h1         1 NJE       0.030700
     23 H7          13.5860    -2.8910    23.5860 hc         1 NJE       0.039700
     24 H8          15.0680    -2.1110    23.0470 hc         1 NJE       0.039700
     25 H9           5.6080     1.3440    16.7340 h4         1 NJE       0.021100
     26 H10          4.4450     0.7380    18.8350 ha         1 NJE       0.120000
     27 H11          5.7810    -1.0310    21.4800 hc         1 NJE       0.045367
     28 H12          5.9460     0.6320    22.0300 hc         1 NJE       0.045367
     29 H13          4.5070     0.1370    21.1240 hc         1 NJE       0.045367
     30 H15         11.8700     0.3830    24.4830 h1         1 NJE       0.030700
     31 H16         11.6130    -1.3670    24.4590 h1         1 NJE       0.030700
     32 H17         13.9610    -0.8890    24.9720 hc         1 NJE       0.050950
     33 H18         14.1180     0.1180    23.5350 hc         1 NJE       0.050950
     34 H19         13.5520    -2.7810    21.1250 hc         1 NJE       0.050950
     35 H20         13.8700    -1.0480    21.1640 hc         1 NJE       0.050950
     36 H5          11.4850    -1.4420    20.7710 h1         1 NJE       0.030700
@<TRIPOS>BOND
     1     1     3 1   
     2     1     4 1   
     3     1    18 1   
     4     2     3 ar  
     5     2     9 ar  
     6     2    19 1   
     7     3    12 ar  
     8     4     5 1   
     9     4     8 2   
    10     5    14 1   
    11     5    20 1   
    12     5    21 1   
    13     6    14 1   
    14     6    17 1   
    15     6    22 1   
    16     6    36 1   
    17     7    16 1   
    18     7    17 1   
    19     7    23 1   
    20     7    24 1   
    21     9    10 ar  
    22    10    11 ar  
    23    10    25 1   
    24    11    12 ar  
    25    11    26 1   
    26    12    13 1   
    27    13    27 1   
    28    13    28 1   
    29    13    29 1   
    30    14    15 1   
    31    15    16 1   
    32    15    30 1   
    33    15    31 1   
    34    16    32 1   
    35    16    33 1   
    36    17    34 1   
    37    17    35 1   
@<TRIPOS>SUBSTRUCTURE
     1 NJE         1 TEMP              0 ****  ****    0 ROOT
