@<TRIPOS>MOLECULE
NJE
   36    37     1     0     0
SMALL
No Charge or Current Charge


@<TRIPOS>ATOM
      1 N1           8.7670     0.7400    20.9580 ns         1 NJE      -0.159000
      2 C4           7.8730     1.8120    18.8820 ca         1 NJE       0.327900
      3 C5           7.8360     0.8020    19.8780 ca         1 NJE      -0.077000
      4 C6           9.9410     1.4370    21.2160 c          1 NJE       0.596100
      5 C7          10.6330     1.0360    22.5500 c3         1 NJE       0.093800
      6 C8          11.1760    -1.3440    22.0040 c6         1 NJE       0.167300
      7 C10         13.0810    -2.5580    23.1910 c6         1 NJE      -0.076400
      8 O           10.4070     2.2900    20.4650 o          1 NJE      -0.551100
      9 N            6.9900     1.8810    17.8560 nb         1 NJE      -0.645000
     10 C3           6.0290     0.9340    17.7880 ca         1 NJE       0.313900
     11 C2           5.9100    -0.1010    18.7280 ca         1 NJE      -0.143000
     12 C1           6.8220    -0.1790    19.7970 ca         1 NJE      -0.088300
     13 C            6.7060    -1.3020    20.8240 c3         1 NJE      -0.050800
     14 N2          11.6870    -0.0310    22.4990 n3         1 NJE      -0.699600
     15 C12         12.3950    -0.1790    23.8020 c6         1 NJE       0.167300
     16 C11         13.5680    -1.1840    23.7050 c6         1 NJE      -0.074400
     17 C9          12.3140    -2.3830    21.8610 c6         1 NJE      -0.074400
     18 H1           8.5300     0.0550    21.6640 hn         1 NJE       0.149000
     19 H2           8.6160     2.6060    18.8970 h4         1 NJE       0.048100
     20 H3          11.0710     1.9600    22.9500 h1         1 NJE       0.045700
     21 H4           9.8420     0.7400    23.2520 h1         1 NJE       0.045700
     22 H6          10.4140    -1.7380    22.6930 h1         1 NJE       0.030700
     23 H7          12.4250    -3.0230    23.9400 hc         1 NJE       0.039700
     24 H8          13.9350    -3.2350    23.0510 hc         1 NJE       0.039700
     25 H9           5.3310     1.0090    16.9540 h4         1 NJE       0.021100
     26 H10          5.1140    -0.8320    18.6190 ha         1 NJE       0.120000
     27 H11          7.6240    -1.9000    20.8610 hc         1 NJE       0.045367
     28 H12          6.5210    -0.9010    21.8280 hc         1 NJE       0.045367
     29 H13          5.8800    -1.9840    20.5870 hc         1 NJE       0.045367
     30 H15         12.7920     0.7920    24.1310 h1         1 NJE       0.030700
     31 H16         11.6930    -0.5200    24.5780 h1         1 NJE       0.030700
     32 H17         14.0430    -1.2970    24.6890 hc         1 NJE       0.050950
     33 H18         14.3370    -0.7840    23.0290 hc         1 NJE       0.050950
     34 H19         11.8990    -3.3470    21.5370 hc         1 NJE       0.050950
     35 H20         13.0070    -2.0580    21.0720 hc         1 NJE       0.050950
     36 H5          10.6960    -1.2260    21.0230 h1         1 NJE       0.030700
@<TRIPOS>BOND
     1     1     3 1   
     2     1     4 1   
     3     1    18 1   
     4     2     3 ar  
     5     2     9 ar  
     6     2    19 1   
     7     3    12 ar  
     8     4     5 1   
     9     4     8 2   
    10     5    14 1   
    11     5    20 1   
    12     5    21 1   
    13     6    14 1   
    14     6    17 1   
    15     6    22 1   
    16     6    36 1   
    17     7    16 1   
    18     7    17 1   
    19     7    23 1   
    20     7    24 1   
    21     9    10 ar  
    22    10    11 ar  
    23    10    25 1   
    24    11    12 ar  
    25    11    26 1   
    26    12    13 1   
    27    13    27 1   
    28    13    28 1   
    29    13    29 1   
    30    14    15 1   
    31    15    16 1   
    32    15    30 1   
    33    15    31 1   
    34    16    32 1   
    35    16    33 1   
    36    17    34 1   
    37    17    35 1   
@<TRIPOS>SUBSTRUCTURE
     1 NJE         1 TEMP              0 ****  ****    0 ROOT
