@<TRIPOS>MOLECULE
NJF
   48    50     1     0     0
SMALL
No Charge or Current Charge


@<TRIPOS>ATOM
      1 C02         51.9160   100.9510    75.9850 ce         1 NJF       0.662800
      2 C04         51.9800   102.2620    75.2560 ca         1 NJF      -0.143900
      3 C05         53.0390   102.5630    74.3670 ca         1 NJF      -0.084000
      4 C06         53.0690   103.7810    73.6670 ca         1 NJF      -0.097500
      5 C07         52.0400   104.7340    73.8280 ca         1 NJF      -0.089900
      6 C08         50.9670   104.4230    74.6880 ca         1 NJF      -0.097500
      7 C09         50.9350   103.2050    75.3870 ca         1 NJF      -0.084000
      8 C10         52.0610   106.0280    73.0700 ce         1 NJF       0.332900
      9 C13         51.9520   108.3300    72.6540 c5         1 NJF       0.121300
     10 C14         51.1050   107.1860    73.2750 c5         1 NJF      -0.167700
     11 C15         52.8200   109.1060    73.6950 c3         1 NJF       0.165800
     12 C17         54.2430   110.3820    72.0860 c6         1 NJF       0.167300
     13 C18         54.6910   111.7930    71.6280 c6         1 NJF      -0.071900
     14 C19         55.3630   112.5810    72.7840 c6         1 NJF      -0.039700
     15 C20         54.4090   112.5940    74.0060 c6         1 NJF      -0.071900
     16 C21         53.9800   111.1600    74.4000 c6         1 NJF       0.167300
     17 C22         55.7870   114.0300    72.3760 c3         1 NJF      -0.201400
     18 C23         56.8850   114.0440    71.2940 c          1 NJF       0.716000
     19 N01         50.8520   100.4870    76.4970 n2         1 NJF      -0.830100
     20 N03         53.0710   100.2830    76.1970 nv         1 NJF      -1.076200
     21 N11         52.9190   106.2930    72.1400 n2         1 NJF      -0.251700
     22 N16         53.3350   110.4390    73.2680 n3         1 NJF      -0.721600
     23 O12         52.8030   107.6290    71.7160 os         1 NJF      -0.265000
     24 O24         58.0490   113.9520    71.6550 o          1 NJF      -0.741000
     25 O25         56.5460   114.1180    70.1220 o          1 NJF      -0.741000
     26 H1          53.8430   101.8490    74.2000 ha         1 NJF       0.125500
     27 H2          53.9010   103.9790    72.9950 ha         1 NJF       0.126500
     28 H3          50.1430   105.1220    74.8180 ha         1 NJF       0.126500
     29 H4          50.0910   102.9980    76.0420 ha         1 NJF       0.125500
     30 H6          51.3240   109.0550    72.1190 h1         1 NJF       0.094700
     31 H7          50.8530   107.3540    74.3280 hc         1 NJF       0.069200
     32 H8          50.1740   107.0280    72.7190 hc         1 NJF       0.069200
     33 H9          52.1930   109.2530    74.5850 h1         1 NJF       0.029200
     34 H10         53.6550   108.4620    74.0060 h1         1 NJF       0.029200
     35 H11         53.7400   109.9040    71.2340 h1         1 NJF       0.021950
     36 H12         55.1330   109.7800    72.3200 h1         1 NJF       0.021950
     37 H13         55.3830   111.6880    70.7830 hc         1 NJF       0.044950
     38 H14         53.8200   112.3470    71.2530 hc         1 NJF       0.044950
     39 H15         56.2840   112.0550    73.0740 hc         1 NJF       0.057700
     40 H16         54.8980   113.0750    74.8630 hc         1 NJF       0.044950
     41 H17         53.5150   113.1920    73.7790 hc         1 NJF       0.044950
     42 H18         53.2870   111.2250    75.2520 h1         1 NJF       0.021950
     43 H19         54.8650   110.6050    74.7460 h1         1 NJF       0.021950
     44 H20         56.1880   114.4870    73.2900 hc         1 NJF       0.017200
     45 H21         54.8870   114.5360    72.0060 hc         1 NJF       0.017200
     46 H22         51.0250    99.5100    76.7560 hn         1 NJF       0.366400
     47 H23         53.9110   100.8300    76.0490 hn         1 NJF       0.460500
     48 H24         53.0930    99.6740    77.0070 hn         1 NJF       0.460500
@<TRIPOS>BOND
     1     1     2 1   
     2     1    19 2   
     3     1    20 1   
     4     2     3 ar  
     5     2     7 ar  
     6     3     4 ar  
     7     3    26 1   
     8     4     5 ar  
     9     4    27 1   
    10     5     6 ar  
    11     5     8 1   
    12     6     7 ar  
    13     6    28 1   
    14     7    29 1   
    15     8    10 1   
    16     8    21 2   
    17     9    10 1   
    18     9    11 1   
    19     9    23 1   
    20     9    30 1   
    21    10    31 1   
    22    10    32 1   
    23    11    22 1   
    24    11    33 1   
    25    11    34 1   
    26    12    13 1   
    27    12    22 1   
    28    12    35 1   
    29    12    36 1   
    30    13    14 1   
    31    13    37 1   
    32    13    38 1   
    33    14    15 1   
    34    14    17 1   
    35    14    39 1   
    36    15    16 1   
    37    15    40 1   
    38    15    41 1   
    39    16    22 1   
    40    16    42 1   
    41    16    43 1   
    42    17    18 1   
    43    17    44 1   
    44    17    45 1   
    45    18    24 1   
    46    18    25 1   
    47    19    46 1   
    48    20    47 1   
    49    20    48 1   
    50    21    23 1   
@<TRIPOS>SUBSTRUCTURE
     1 NJF         1 TEMP              0 ****  ****    0 ROOT
