@<TRIPOS>MOLECULE
NJF
   48    50     1     0     0
SMALL
abcg2


@<TRIPOS>ATOM
      1 C02         51.5410   100.7300    75.6760 ce         1 NJF       0.662800
      2 C04         51.8000   102.0820    75.1080 ca         1 NJF      -0.143900
      3 C05         52.8860   102.3320    74.2680 ca         1 NJF      -0.084000
      4 C06         53.0950   103.5910    73.7350 ca         1 NJF      -0.097500
      5 C07         52.2270   104.6420    74.0350 ca         1 NJF      -0.089900
      6 C08         51.1450   104.3930    74.8800 ca         1 NJF      -0.097500
      7 C09         50.9310   103.1280    75.4010 ca         1 NJF      -0.084000
      8 C10         52.4230   105.9780    73.4780 ce         1 NJF       0.332900
      9 C13         52.3770   108.2740    73.0670 c5         1 NJF       0.121300
     10 C14         51.6440   107.1950    73.8650 c5         1 NJF      -0.167700
     11 C15         53.1420   109.2430    73.9570 c3         1 NJF       0.165800
     12 C17         54.5570   110.3540    72.3160 c6         1 NJF       0.167300
     13 C18         54.8390   111.6810    71.6260 c6         1 NJF      -0.071900
     14 C19         55.2250   112.7720    72.6180 c6         1 NJF      -0.039700
     15 C20         54.1510   112.8360    73.6990 c6         1 NJF      -0.071900
     16 C21         53.9010   111.4730    74.3230 c6         1 NJF       0.167300
     17 C22         55.4220   114.1230    71.9450 c3         1 NJF      -0.201400
     18 C23         56.6020   114.2270    70.9570 c          1 NJF       0.716000
     19 N01         50.3370   100.4100    75.9580 n2         1 NJF      -0.830100
     20 N03         52.6390    99.9260    75.7910 nv         1 NJF      -1.076200
     21 N11         53.2930   106.2100    72.5770 n2         1 NJF      -0.251700
     22 N16         53.5140   110.4900    73.3220 n3         1 NJF      -0.721600
     23 O12         53.2720   107.5190    72.2110 os         1 NJF      -0.265000
     24 O24         57.6120   113.5340    71.2000 o          1 NJF      -0.741000
     25 O25         56.4680   115.0340    70.0140 o          1 NJF      -0.741000
     26 H1          53.5720   101.5370    74.0050 ha         1 NJF       0.125500
     27 H2          53.9410   103.7570    73.0820 ha         1 NJF       0.126500
     28 H3          50.4580   105.1890    75.1360 ha         1 NJF       0.126500
     29 H4          50.0860   102.9500    76.0520 ha         1 NJF       0.125500
     30 H6          51.7020   108.8320    72.4150 h1         1 NJF       0.094700
     31 H7          51.6740   107.3690    74.9430 hc         1 NJF       0.069200
     32 H8          50.5930   107.1000    73.5840 hc         1 NJF       0.069200
     33 H9          52.4720   109.4950    74.7840 h1         1 NJF       0.029200
     34 H10         54.0010   108.7150    74.4090 h1         1 NJF       0.029200
     35 H11         54.2490   109.6260    71.5660 h1         1 NJF       0.021950
     36 H12         55.4910   109.9710    72.7660 h1         1 NJF       0.021950
     37 H13         55.6320   111.5340    70.8900 hc         1 NJF       0.044950
     38 H14         53.9440   111.9930    71.0770 hc         1 NJF       0.044950
     39 H15         56.1670   112.4780    73.0940 hc         1 NJF       0.057700
     40 H16         54.4380   113.5410    74.4840 hc         1 NJF       0.044950
     41 H17         53.2150   113.2060    73.2660 hc         1 NJF       0.044950
     42 H18         53.1030   111.5490    75.0660 h1         1 NJF       0.021950
     43 H19         54.8090   111.1520    74.8660 h1         1 NJF       0.021950
     44 H20         55.5870   114.8810    72.7230 hc         1 NJF       0.017200
     45 H21         54.4940   114.4180    71.4430 hc         1 NJF       0.017200
     46 H22         50.2880    99.4780    76.3620 hn         1 NJF       0.366400
     47 H23         53.5380   100.3560    75.9300 hn         1 NJF       0.460500
     48 H24         52.5250    99.0590    76.2930 hn         1 NJF       0.460500
@<TRIPOS>BOND
     1     1     2 1   
     2     1    19 2   
     3     1    20 1   
     4     2     3 ar  
     5     2     7 ar  
     6     3     4 ar  
     7     3    26 1   
     8     4     5 ar  
     9     4    27 1   
    10     5     6 ar  
    11     5     8 1   
    12     6     7 ar  
    13     6    28 1   
    14     7    29 1   
    15     8    10 1   
    16     8    21 2   
    17     9    10 1   
    18     9    11 1   
    19     9    23 1   
    20     9    30 1   
    21    10    31 1   
    22    10    32 1   
    23    11    22 1   
    24    11    33 1   
    25    11    34 1   
    26    12    13 1   
    27    12    22 1   
    28    12    35 1   
    29    12    36 1   
    30    13    14 1   
    31    13    37 1   
    32    13    38 1   
    33    14    15 1   
    34    14    17 1   
    35    14    39 1   
    36    15    16 1   
    37    15    40 1   
    38    15    41 1   
    39    16    22 1   
    40    16    42 1   
    41    16    43 1   
    42    17    18 1   
    43    17    44 1   
    44    17    45 1   
    45    18    24 1   
    46    18    25 1   
    47    19    46 1   
    48    20    47 1   
    49    20    48 1   
    50    21    23 1   
@<TRIPOS>SUBSTRUCTURE
     1 NJF         1 TEMP              0 ****  ****    0 ROOT
