@<TRIPOS>MOLECULE
NJG
   84    87     1     0     0
SMALL
No Charge or Current Charge


@<TRIPOS>ATOM
      1 C13         71.0520    56.8270    15.3620 c3         1 NJG       0.155300
      2 C15         70.6690    57.5810    16.6740 c3         1 NJG       0.098700
      3 C17         72.6110    58.5620    17.9330 c          1 NJG       0.635100
      4 C20         74.1910    59.9070    19.1090 c5         1 NJG       0.160300
      5 C21         75.1560    61.0550    18.7100 c5         1 NJG       0.152600
      6 C24         73.9410    61.9790    20.4450 c5         1 NJG       0.367300
      7 C26         71.6880    61.8620    19.9300 c5         1 NJG       0.150600
      8 C28         69.2280    58.1630    16.7060 c3         1 NJG      -0.038100
      9 C01         67.1210    51.5300    13.4290 ca         1 NJG      -0.064300
     10 C02         66.7730    52.8580    13.7560 ca         1 NJG      -0.113000
     11 C03         67.4110    53.5280    14.8130 ca         1 NJG      -0.018000
     12 C04         68.4120    52.8750    15.5610 ca         1 NJG      -0.311500
     13 C05         68.7570    51.5450    15.2470 ca         1 NJG      -0.018000
     14 C06         68.1160    50.8810    14.1880 ca         1 NJG      -0.113000
     15 C11         71.5680    53.3990    15.6380 c3         1 NJG       0.203800
     16 C12         70.2810    55.4860    15.1590 c3         1 NJG       0.210800
     17 C23         73.5790    60.4550    20.4640 c5         1 NJG      -0.141700
     18 C25         72.0060    60.4670    20.5120 c5         1 NJG      -0.094400
     19 C29         68.9060    58.8720    18.0200 ca         1 NJG      -0.084300
     20 C30         68.8640    58.1450    19.2270 ca         1 NJG      -0.101000
     21 C31         68.5770    58.7960    20.4390 ca         1 NJG      -0.116000
     22 C32         68.3240    60.1780    20.4530 ca         1 NJG      -0.115000
     23 C33         68.3570    60.9070    19.2530 ca         1 NJG      -0.116000
     24 C34         68.6500    60.2580    18.0410 ca         1 NJG      -0.101000
     25 C35         66.9400    51.2210    10.8670 c3         1 NJG       0.169600
     26 C37         73.0030    53.9050    15.3180 c3         1 NJG      -0.059700
     27 C38         73.8520    52.8310    14.5790 c3         1 NJG      -0.075400
     28 C39         73.7200    54.4510    16.5800 c3         1 NJG      -0.089100
     29 C40         66.4300    50.7870    12.2800 c3         1 NJG       0.213600
     30 N10         70.6090    54.4160    16.1510 n3         1 NJG      -0.741500
     31 N16         71.6390    58.6440    16.9790 ns         1 NJG      -0.502900
     32 O08         68.4210    54.8570    17.3710 o          1 NJG      -0.543500
     33 O09         69.7560    52.7520    17.8800 o          1 NJG      -0.543500
     34 O14         70.8650    57.6800    14.2130 oh         1 NJG      -0.671000
     35 O18         72.8570    57.5710    18.6020 o          1 NJG      -0.539000
     36 O19         73.2020    59.7890    18.0440 os         1 NJG      -0.461100
     37 O22         74.4750    62.2480    19.1380 os         1 NJG      -0.467000
     38 O27         72.6900    62.6810    20.5590 os         1 NJG      -0.446000
     39 O41         65.0000    50.9170    12.3800 oh         1 NJG      -0.646000
     40 S07         69.2420    53.7310    16.9150 sy         1 NJG       1.188600
     41 H131        72.1160    56.5810    15.4410 h1         1 NJG       0.054700
     42 H151        70.7280    56.8380    17.4810 h1         1 NJG       0.102700
     43 H201        74.7490    58.9680    19.2320 h1         1 NJG       0.088700
     44 H211        75.3520    61.0960    17.6300 h1         1 NJG       0.062200
     45 H212        76.1150    60.9770    19.2420 h1         1 NJG       0.062200
     46 H241        74.6510    62.2640    21.2340 h2         1 NJG       0.082700
     47 H261        70.6850    62.2210    20.1940 h1         1 NJG       0.056700
     48 H262        71.8080    61.9010    18.8380 h1         1 NJG       0.056700
     49 H281        69.1000    58.8550    15.8650 hc         1 NJG       0.064700
     50 H282        68.5000    57.3620    16.5450 hc         1 NJG       0.064700
     51 H021        66.0060    53.3760    13.1850 ha         1 NJG       0.126000
     52 H031        67.1210    54.5510    15.0460 ha         1 NJG       0.133500
     53 H051        69.5230    51.0210    15.8180 ha         1 NJG       0.133500
     54 H061        68.3980    49.8560    13.9570 ha         1 NJG       0.126000
     55 H111        71.1570    52.9360    14.7310 h1         1 NJG       0.052200
     56 H112        71.6850    52.5920    16.3720 h1         1 NJG       0.052200
     57 H122        69.2110    55.7250    15.1600 h1         1 NJG       0.064700
     58 H121        70.4890    55.1240    14.1430 h1         1 NJG       0.064700
     59 H231        74.0150    59.9490    21.3330 hc         1 NJG       0.077700
     60 H251        71.6530    60.4110    21.5480 hc         1 NJG       0.067200
     61 H252        71.5070    59.6510    19.9820 hc         1 NJG       0.067200
     62 H301        69.0540    57.0740    19.2260 ha         1 NJG       0.122000
     63 H311        68.5490    58.2290    21.3670 ha         1 NJG       0.112000
     64 H321        68.1000    60.6810    21.3910 ha         1 NJG       0.110000
     65 H331        68.1590    61.9770    19.2620 ha         1 NJG       0.112000
     66 H341        68.6780    60.8340    17.1190 ha         1 NJG       0.122000
     67 H352        66.4740    50.5700    10.1140 h1         1 NJG       0.032700
     68 H351        68.0220    51.0400    10.8210 h1         1 NJG       0.032700
     69 H362        74.7290    50.8440    14.7560 hc         1 NJG       0.034033
     70 H361        74.6710    51.7260    16.2910 hc         1 NJG       0.034033
     71 H363        73.1880    51.0110    15.6120 hc         1 NJG       0.034033
     72 H371        72.9140    54.7330    14.6080 hc         1 NJG       0.044700
     73 H382        74.8160    53.2750    14.2990 hc         1 NJG       0.039200
     74 H381        73.3530    52.5730    13.6370 hc         1 NJG       0.039200
     75 H391        73.1550    55.2770    17.0240 hc         1 NJG       0.044700
     76 H393        73.8230    53.6730    17.3450 hc         1 NJG       0.044700
     77 H392        74.7200    54.8230    16.3280 hc         1 NJG       0.044700
     78 H401        66.6850    49.7230    12.3810 h1         1 NJG       0.041700
     79 H161        71.5220    59.5550    16.5550 hn         1 NJG       0.322500
     80 H141        71.5190    58.4080    14.2880 ho         1 NJG       0.449000
     81 H411        64.7710    50.7320    13.3160 ho         1 NJG       0.447000
     82 H421        66.9740    52.7650     9.6480 ho         1 NJG       0.443000
     83 O42         66.6600    52.6040    10.5650 oh         1 NJG      -0.652000
     84 C36         74.1220    51.5260    15.3630 c3         1 NJG      -0.090100
@<TRIPOS>BOND
     1     1     2 1   
     2     1    16 1   
     3     1    34 1   
     4     1    41 1   
     5     2     8 1   
     6     2    31 1   
     7     2    42 1   
     8     3    31 1   
     9     3    35 2   
    10     3    36 1   
    11     4     5 1   
    12     4    17 1   
    13     4    36 1   
    14     4    43 1   
    15     5    37 1   
    16     5    44 1   
    17     5    45 1   
    18     6    17 1   
    19     6    37 1   
    20     6    38 1   
    21     6    46 1   
    22     7    18 1   
    23     7    38 1   
    24     7    47 1   
    25     7    48 1   
    26     8    19 1   
    27     8    49 1   
    28     8    50 1   
    29     9    10 ar  
    30     9    14 ar  
    31     9    29 1   
    32    10    11 ar  
    33    10    51 1   
    34    11    12 ar  
    35    11    52 1   
    36    12    13 ar  
    37    12    40 1   
    38    13    14 ar  
    39    13    53 1   
    40    14    54 1   
    41    15    26 1   
    42    15    30 1   
    43    15    55 1   
    44    15    56 1   
    45    16    30 1   
    46    16    57 1   
    47    16    58 1   
    48    17    18 1   
    49    17    59 1   
    50    18    60 1   
    51    18    61 1   
    52    19    20 ar  
    53    19    24 ar  
    54    20    21 ar  
    55    20    62 1   
    56    21    22 ar  
    57    21    63 1   
    58    22    23 ar  
    59    22    64 1   
    60    23    24 ar  
    61    23    65 1   
    62    24    66 1   
    63    25    29 1   
    64    25    67 1   
    65    25    68 1   
    66    25    83 1   
    67    26    27 1   
    68    26    28 1   
    69    26    72 1   
    70    27    73 1   
    71    27    74 1   
    72    27    84 1   
    73    28    75 1   
    74    28    76 1   
    75    28    77 1   
    76    29    39 1   
    77    29    78 1   
    78    30    40 1   
    79    31    79 1   
    80    32    40 2   
    81    33    40 2   
    82    34    80 1   
    83    39    81 1   
    84    69    84 1   
    85    70    84 1   
    86    71    84 1   
    87    82    83 1   
@<TRIPOS>SUBSTRUCTURE
     1 NJG         1 TEMP              0 ****  ****    0 ROOT
