@<TRIPOS>MOLECULE
NJG
   84    87     1     0     0
SMALL
abcg2


@<TRIPOS>ATOM
      1 C13         71.0630    57.0440    15.1500 c3         1 NJG       0.155300
      2 C15         70.6890    57.6560    16.5110 c3         1 NJG       0.098700
      3 C17         72.4760    58.4660    17.9970 c          1 NJG       0.635100
      4 C20         74.0930    59.5930    19.3510 c5         1 NJG       0.160300
      5 C21         75.2580    60.5110    19.0330 c5         1 NJG       0.152600
      6 C24         73.9390    61.7610    20.4610 c5         1 NJG       0.367300
      7 C26         71.7140    61.8160    19.8420 c5         1 NJG       0.150600
      8 C28         69.2920    58.2900    16.5370 c3         1 NJG      -0.038100
      9 C01         67.0070    51.5240    13.7280 ca         1 NJG      -0.064300
     10 C02         66.6710    52.8530    13.9800 ca         1 NJG      -0.113000
     11 C03         67.3970    53.6060    14.8930 ca         1 NJG      -0.018000
     12 C04         68.4720    53.0230    15.5580 ca         1 NJG      -0.311500
     13 C05         68.8210    51.6950    15.3210 ca         1 NJG      -0.018000
     14 C06         68.0820    50.9550    14.4110 ca         1 NJG      -0.113000
     15 C11         71.6630    53.6800    15.2300 c3         1 NJG       0.203800
     16 C12         70.3180    55.7470    14.8330 c3         1 NJG       0.210800
     17 C23         73.4260    60.3000    20.5480 c5         1 NJG      -0.141700
     18 C25         71.9000    60.4600    20.5120 c5         1 NJG      -0.094400
     19 C29         68.9350    58.8510    17.8910 ca         1 NJG      -0.084300
     20 C30         68.7700    58.0100    18.9950 ca         1 NJG      -0.101000
     21 C31         68.4460    58.5290    20.2430 ca         1 NJG      -0.116000
     22 C32         68.2770    59.9010    20.4100 ca         1 NJG      -0.115000
     23 C33         68.4380    60.7470    19.3190 ca         1 NJG      -0.116000
     24 C34         68.7710    60.2240    18.0730 ca         1 NJG      -0.101000
     25 C35         66.9170    50.6930    11.3490 c3         1 NJG       0.169600
     26 C37         73.0940    54.2220    15.2100 c3         1 NJG      -0.059700
     27 C38         74.0250    53.2210    14.5010 c3         1 NJG      -0.075400
     28 C39         73.5800    54.5920    16.6100 c3         1 NJG      -0.089100
     29 C40         66.2460    50.6930    12.7160 c3         1 NJG       0.213600
     30 N10         70.6710    54.6470    15.7430 n3         1 NJG      -0.741500
     31 N16         71.6910    58.6300    16.9160 ns         1 NJG      -0.502900
     32 O08         68.6390    55.1110    17.1080 o          1 NJG      -0.543500
     33 O09         70.0600    53.1360    17.6290 o          1 NJG      -0.543500
     34 O14         70.7800    57.9120    14.0510 oh         1 NJG      -0.671000
     35 O18         72.5200    57.4750    18.7080 o          1 NJG      -0.539000
     36 O19         73.2380    59.5700    18.1910 os         1 NJG      -0.461100
     37 O22         74.7800    61.8300    19.3050 os         1 NJG      -0.467000
     38 O27         72.8310    62.6030    20.3120 os         1 NJG      -0.446000
     39 O41         64.9000    51.1310    12.5390 oh         1 NJG      -0.646000
     40 S07         69.4530    54.0090    16.6520 sy         1 NJG       1.188600
     41 H131        72.1340    56.8370    15.1810 h1         1 NJG       0.054700
     42 H151        70.7390    56.8540    17.2440 h1         1 NJG       0.102700
     43 H201        74.3990    58.5770    19.5810 h1         1 NJG       0.088700
     44 H211        75.5670    60.4610    17.9910 h1         1 NJG       0.062200
     45 H212        76.1090    60.2660    19.6780 h1         1 NJG       0.062200
     46 H241        74.5040    62.1050    21.3310 h2         1 NJG       0.082700
     47 H261        70.8040    62.3340    20.1370 h1         1 NJG       0.056700
     48 H262        71.7460    61.7360    18.7530 h1         1 NJG       0.056700
     49 H281        69.2490    59.0840    15.7900 hc         1 NJG       0.064700
     50 H282        68.5660    57.5310    16.2480 hc         1 NJG       0.064700
     51 H021        65.8330    53.2980    13.4640 ha         1 NJG       0.126000
     52 H031        67.1260    54.6330    15.0890 ha         1 NJG       0.133500
     53 H051        69.6460    51.2440    15.8540 ha         1 NJG       0.133500
     54 H061        68.3410    49.9170    14.2350 ha         1 NJG       0.126000
     55 H111        71.3670    53.3730    14.2200 h1         1 NJG       0.052200
     56 H112        71.6280    52.8030    15.8700 h1         1 NJG       0.052200
     57 H122        69.2460    55.9310    14.8590 h1         1 NJG       0.064700
     58 H121        70.5700    55.4490    13.8140 h1         1 NJG       0.064700
     59 H231        73.7610    59.8210    21.4660 hc         1 NJG       0.077700
     60 H251        71.5160    60.4970    21.5310 hc         1 NJG       0.067200
     61 H252        71.3840    59.6580    19.9910 hc         1 NJG       0.067200
     62 H301        68.8920    56.9410    18.8700 ha         1 NJG       0.122000
     63 H311        68.3240    57.8610    21.0870 ha         1 NJG       0.112000
     64 H321        68.0190    60.3050    21.3810 ha         1 NJG       0.110000
     65 H331        68.3120    61.8160    19.4380 ha         1 NJG       0.112000
     66 H341        68.9020    60.8900    17.2280 ha         1 NJG       0.122000
     67 H352        66.3070    50.0860    10.6710 h1         1 NJG       0.032700
     68 H351        67.8990    50.2200    11.4500 h1         1 NJG       0.032700
     69 H362        74.8650    51.2290    14.6070 hc         1 NJG       0.034033
     70 H361        74.5110    51.9230    16.1870 hc         1 NJG       0.034033
     71 H363        73.2010    51.3130    15.1760 hc         1 NJG       0.034033
     72 H371        73.1050    55.1250    14.5930 hc         1 NJG       0.044700
     73 H382        75.0150    53.6800    14.4350 hc         1 NJG       0.039200
     74 H381        73.6750    53.0940    13.4710 hc         1 NJG       0.039200
     75 H391        72.9520    55.3610    17.0590 hc         1 NJG       0.044700
     76 H393        73.5660    53.7260    17.2750 hc         1 NJG       0.044700
     77 H392        74.6030    54.9710    16.5710 hc         1 NJG       0.044700
     78 H401        66.2550    49.6510    13.0560 h1         1 NJG       0.041700
     79 H161        71.6980    59.5390    16.4780 hn         1 NJG       0.322500
     80 H141        71.3830    58.6650    14.0800 ho         1 NJG       0.449000
     81 H411        64.4570    51.1140    13.3970 ho         1 NJG       0.447000
     82 H421        67.4520    51.9900     9.9910 ho         1 NJG       0.443000
     83 O42         67.0390    52.0260    10.8620 oh         1 NJG      -0.652000
     84 C36         74.1530    51.8470    15.1590 c3         1 NJG      -0.090100
@<TRIPOS>BOND
     1     1     2 1   
     2     1    16 1   
     3     1    34 1   
     4     1    41 1   
     5     2     8 1   
     6     2    31 1   
     7     2    42 1   
     8     3    31 1   
     9     3    35 2   
    10     3    36 1   
    11     4     5 1   
    12     4    17 1   
    13     4    36 1   
    14     4    43 1   
    15     5    37 1   
    16     5    44 1   
    17     5    45 1   
    18     6    17 1   
    19     6    37 1   
    20     6    38 1   
    21     6    46 1   
    22     7    18 1   
    23     7    38 1   
    24     7    47 1   
    25     7    48 1   
    26     8    19 1   
    27     8    49 1   
    28     8    50 1   
    29     9    10 ar  
    30     9    14 ar  
    31     9    29 1   
    32    10    11 ar  
    33    10    51 1   
    34    11    12 ar  
    35    11    52 1   
    36    12    13 ar  
    37    12    40 1   
    38    13    14 ar  
    39    13    53 1   
    40    14    54 1   
    41    15    26 1   
    42    15    30 1   
    43    15    55 1   
    44    15    56 1   
    45    16    30 1   
    46    16    57 1   
    47    16    58 1   
    48    17    18 1   
    49    17    59 1   
    50    18    60 1   
    51    18    61 1   
    52    19    20 ar  
    53    19    24 ar  
    54    20    21 ar  
    55    20    62 1   
    56    21    22 ar  
    57    21    63 1   
    58    22    23 ar  
    59    22    64 1   
    60    23    24 ar  
    61    23    65 1   
    62    24    66 1   
    63    25    29 1   
    64    25    67 1   
    65    25    68 1   
    66    25    83 1   
    67    26    27 1   
    68    26    28 1   
    69    26    72 1   
    70    27    73 1   
    71    27    74 1   
    72    27    84 1   
    73    28    75 1   
    74    28    76 1   
    75    28    77 1   
    76    29    39 1   
    77    29    78 1   
    78    30    40 1   
    79    31    79 1   
    80    32    40 2   
    81    33    40 2   
    82    34    80 1   
    83    39    81 1   
    84    69    84 1   
    85    70    84 1   
    86    71    84 1   
    87    82    83 1   
@<TRIPOS>SUBSTRUCTURE
     1 NJG         1 TEMP              0 ****  ****    0 ROOT
