@<TRIPOS>MOLECULE
NJH
   50    56     1     0     0
SMALL
abcg2


@<TRIPOS>ATOM
      1 C4          -4.3460     5.8090    26.9760 c2         1 NJH       0.090000
      2 C5          -2.9660     5.8480    26.8030 c2         1 NJH      -0.187000
      3 C6          -2.3900     7.1030    26.7670 c2         1 NJH      -0.036000
      4 N1          -3.1010     8.2200    26.8890 n2         1 NJH      -0.166000
      5 N3          -5.0630     6.9190    27.0960 n2         1 NJH      -0.182000
      6 CAB         -7.4900     5.7150    28.9440 ca         1 NJH      -0.040000
      7 CAC         -8.4890     6.6020    29.3040 ca         1 NJH      -0.120000
      8 CAD         -9.3770     7.0540    28.3380 ca         1 NJH      -0.111000
      9 CAE         -9.2660     6.6240    27.0230 ca         1 NJH      -0.124000
     10 CAF         -8.2600     5.7380    26.6690 ca         1 NJH      -0.095000
     11 CAG         -7.3710     5.2870    27.6290 ca         1 NJH       0.061000
     12 NAH         -6.3720     4.3430    27.2850 na         1 NJH      -0.115000
     13 CAI         -5.0450     4.5300    27.0300 c2         1 NJH      -0.017000
     14 C2          -4.4060     8.0660    27.0470 c2         1 NJH      -0.015000
     15 NAJ         -4.4750     3.3730    26.8410 n2         1 NJH      -0.080000
     16 NAK         -5.4080     2.4140    26.9830 n2         1 NJH      -0.079000
     17 CAL         -6.5450     2.9950    27.2550 c2         1 NJH       0.009000
     18 CAM         -7.8120     2.3060    27.5070 DU         1 NJH      -0.061000
     19 CAP         -9.0520     2.2070    26.5820 cx         1 NJH      -0.148000
     20 CAQ         -8.7950     2.5160    28.6840 cx         1 NJH      -0.148000
     21 CAN         -7.9400     0.7920    27.7490 cx         1 NJH      -0.148000
     22 CAO         -9.3690     1.3700    27.8400 DU         1 NJH       0.030000
     23 NAR        -10.5730     0.6920    28.1540 ns         1 NJH      -0.344000
     24 CAS        -11.0390    -0.3410    27.4270 c2         1 NJH       0.362000
     25 OAT        -10.4560    -0.7930    26.4580 o          1 NJH      -0.311000
     26 CAU        -12.3490    -0.9130    27.8920 c2         1 NJH      -0.059000
     27 NAZ        -12.4810    -2.2240    27.7200 n2         1 NJH      -0.092000
     28 CAY        -13.6180    -2.7910    28.0920 c2         1 NJH      -0.062000
     29 CAX        -14.6840    -2.0830    28.6340 c2         1 NJH      -0.166000
     30 CAW        -14.5490    -0.7150    28.7920 c2         1 NJH      -0.096000
     31 CAV        -13.3550    -0.1140    28.4200 c2         1 NJH      -0.164000
     32 H5          -2.3740     4.9500    26.7060 ha         1 NJH       0.179000
     33 H6          -1.3190     7.2120    26.6390 h4         1 NJH       0.167000
     34 HAC         -8.5770     6.9330    30.3300 ha         1 NJH       0.152000
     35 HAD        -10.1610     7.7440    28.6190 ha         1 NJH       0.141000
     36 HAE         -9.9600     6.9760    26.2730 ha         1 NJH       0.144000
     37 HAF         -8.1570     5.3970    25.6480 ha         1 NJH       0.153000
     38 H2          -4.9980     8.9680    27.1490 h5         1 NJH       0.189000
     39 HAP         -9.6330     3.1190    26.4440 hc         1 NJH       0.111000
     40 HAQ         -8.9130     1.6640    25.6480 hc         1 NJH       0.111000
     41 HAR         -8.4230     2.2570    29.6770 hc         1 NJH       0.111000
     42 HAS         -9.3670     3.4450    28.6920 hc         1 NJH       0.111000
     43 HAN         -7.7250     0.1410    26.9030 hc         1 NJH       0.111000
     44 HAO         -7.5050     0.4160    28.6760 hc         1 NJH       0.111000
     45 H6L        -11.0500     0.9620    29.0000 hn         1 NJH       0.236000
     46 HAY        -13.6920    -3.8640    27.9520 h4         1 NJH       0.164000
     47 HAX        -15.5930    -2.5960    28.9150 ha         1 NJH       0.146000
     48 HAW        -15.3580    -0.1210    29.1960 ha         1 NJH       0.140000
     49 HAV        -13.2290     0.9560    28.5200 ha         1 NJH       0.141000
     50 CL1         -6.3850     5.1240    30.1300 cl         1 NJH      -0.003000
@<TRIPOS>BOND
     1     1     2 1   
     2     1     5 1   
     3     1    13 1   
     4     2     3 1   
     5     2    32 1   
     6     3     4 1   
     7     3    33 1   
     8     4    14 1   
     9     5    14 1   
    10     6     7 1   
    11     6    11 1   
    12     6    50 1   
    13     7     8 1   
    14     7    34 1   
    15     8     9 1   
    16     8    35 1   
    17     9    10 1   
    18     9    36 1   
    19    10    11 1   
    20    10    37 1   
    21    11    12 1   
    22    12    13 1   
    23    12    17 1   
    24    13    15 1   
    25    14    38 1   
    26    15    16 1   
    27    16    17 1   
    28    17    18 1   
    29    18    19 1   
    30    18    20 1   
    31    18    21 1   
    32    18    22 1   
    33    19    22 1   
    34    19    39 1   
    35    19    40 1   
    36    20    22 1   
    37    20    41 1   
    38    20    42 1   
    39    21    22 1   
    40    21    43 1   
    41    21    44 1   
    42    22    23 1   
    43    23    24 1   
    44    23    45 1   
    45    24    25 1   
    46    24    26 1   
    47    26    27 1   
    48    26    31 1   
    49    27    28 1   
    50    28    29 1   
    51    28    46 1   
    52    29    30 1   
    53    29    47 1   
    54    30    31 1   
    55    30    48 1   
    56    31    49 1   
@<TRIPOS>SUBSTRUCTURE
     1 NJH         1 TEMP              0 ****  ****    0 ROOT
