@<TRIPOS>MOLECULE
NJI
   56    59     1     0     0
SMALL
No Charge or Current Charge


@<TRIPOS>ATOM
      1 O1         -19.8530   -26.1430    -3.7170 o          1 NJI      -0.588100
      2 C1         -20.6690   -25.2360    -3.5500 c          1 NJI       0.605100
      3 C2         -22.0120   -25.3630    -4.2820 c3         1 NJI       0.047600
      4 N1         -20.6110   -24.0250    -2.7840 nj         1 NJI      -0.424800
      5 C3         -19.3560   -23.4150    -3.3500 cy         1 NJI       0.107000
      6 C4         -18.8220   -23.3690    -1.8780 cy         1 NJI      -0.085000
      7 C5         -17.3450   -23.8120    -1.7080 c6         1 NJI      -0.085400
      8 C6         -16.3770   -22.7020    -2.1790 c6         1 NJI       0.101000
      9 N2         -16.6100   -21.4160    -1.4650 n          1 NJI      -0.404800
     10 C7         -15.7260   -21.0260    -0.3960 c          1 NJI       0.597100
     11 O2         -15.0940   -21.9010     0.1940 o          1 NJI      -0.609100
     12 C8         -15.6260   -19.4860     0.0520 c6         1 NJI       0.196200
     13 N3         -16.6410   -19.0840     1.0870 nu         1 NJI      -0.999200
     14 C9         -17.4690   -19.9750     1.7650 ca         1 NJI       0.339000
     15 C10        -18.8590   -19.7980     1.6950 ca         1 NJI      -0.191500
     16 C11        -19.7230   -20.6870     2.3630 ca         1 NJI      -0.053500
     17 C12        -19.1890   -21.7490     3.1120 ca         1 NJI       0.066000
     18 Cl2        -20.2650   -22.8680     3.9390 cl         1 NJI      -0.216000
     19 C13        -17.7970   -21.9140     3.2060 ca         1 NJI      -0.053500
     20 C14        -16.9400   -21.0200     2.5380 ca         1 NJI      -0.191500
     21 C15        -15.8260   -18.5310    -1.1790 c6         1 NJI      -0.119400
     22 C16        -15.3880   -17.0710    -0.9070 c6         1 NJI       0.152100
     23 O3         -14.0380   -17.0410    -0.4110 os         1 NJI      -0.450000
     24 C17        -13.8790   -17.7400     0.8360 c6         1 NJI       0.152100
     25 C18        -14.1990   -19.2340     0.6360 c6         1 NJI      -0.119400
     26 C19        -18.0440   -20.9370    -1.6200 c6         1 NJI       0.101000
     27 C20        -19.0570   -22.0120    -1.1570 c6         1 NJI      -0.085400
     28 C21        -19.8830   -24.4690    -1.5410 cy         1 NJI       0.107000
     29 H1         -22.2720   -26.4250    -4.3690 h1         1 NJI       0.085200
     30 H2         -22.7870   -24.8490    -3.7020 h1         1 NJI       0.085200
     31 Cl1        -21.9850   -24.6400    -5.9610 cl         1 NJI      -0.263000
     32 H4         -18.7530   -24.0300    -4.0300 h1         1 NJI       0.061950
     33 H5         -19.5280   -22.4300    -3.7990 h1         1 NJI       0.061950
     34 H6         -17.1500   -24.7360    -2.2700 hc         1 NJI       0.062450
     35 H7         -17.1450   -24.0430    -0.6530 hc         1 NJI       0.062450
     36 H8         -15.3380   -23.0340    -2.0390 h1         1 NJI       0.057200
     37 H9         -16.5120   -22.5350    -3.2580 h1         1 NJI       0.057200
     38 H10        -17.0930   -18.1860     0.9230 hn         1 NJI       0.489000
     39 H11        -19.2760   -18.9820     1.1120 ha         1 NJI       0.122000
     40 H12        -20.8000   -20.5560     2.2970 ha         1 NJI       0.128500
     41 H13        -17.3850   -22.7290     3.7960 ha         1 NJI       0.128500
     42 H14        -15.8650   -21.1420     2.6240 ha         1 NJI       0.122000
     43 H15        -16.8650   -18.5120    -1.5230 hc         1 NJI       0.071450
     44 H16        -15.2380   -18.9110    -2.0250 hc         1 NJI       0.071450
     45 H17        -15.4390   -16.4860    -1.8370 h1         1 NJI       0.048950
     46 H18        -16.0550   -16.5950    -0.1730 h1         1 NJI       0.048950
     47 H19        -12.8420   -17.6230     1.1810 h1         1 NJI       0.048950
     48 H20        -14.5420   -17.2980     1.5940 h1         1 NJI       0.048950
     49 H21        -14.0810   -19.7620     1.5910 hc         1 NJI       0.071450
     50 H22        -13.4460   -19.6600    -0.0420 hc         1 NJI       0.071450
     51 H23        -18.2180   -20.0360    -1.0200 h1         1 NJI       0.057200
     52 H24        -18.2270   -20.6760    -2.6720 h1         1 NJI       0.057200
     53 H25        -18.9530   -22.1570    -0.0730 hc         1 NJI       0.062450
     54 H26        -20.0810   -21.6510    -1.3220 hc         1 NJI       0.062450
     55 H27        -20.4500   -24.2740    -0.6250 h1         1 NJI       0.061950
     56 H28        -19.4830   -25.4890    -1.5140 h1         1 NJI       0.061950
@<TRIPOS>BOND
     1     1     2 2   
     2     2     3 1   
     3     2     4 1   
     4     3    29 1   
     5     3    30 1   
     6     3    31 1   
     7     4     5 1   
     8     4    28 1   
     9     5     6 1   
    10     5    32 1   
    11     5    33 1   
    12     6     7 1   
    13     6    27 1   
    14     6    28 1   
    15     7     8 1   
    16     7    34 1   
    17     7    35 1   
    18     8     9 1   
    19     8    36 1   
    20     8    37 1   
    21     9    10 1   
    22     9    26 1   
    23    10    11 2   
    24    10    12 1   
    25    12    13 1   
    26    12    21 1   
    27    12    25 1   
    28    13    14 1   
    29    13    38 1   
    30    14    15 ar  
    31    14    20 ar  
    32    15    16 ar  
    33    15    39 1   
    34    16    17 ar  
    35    16    40 1   
    36    17    18 1   
    37    17    19 ar  
    38    19    20 ar  
    39    19    41 1   
    40    20    42 1   
    41    21    22 1   
    42    21    43 1   
    43    21    44 1   
    44    22    23 1   
    45    22    45 1   
    46    22    46 1   
    47    23    24 1   
    48    24    25 1   
    49    24    47 1   
    50    24    48 1   
    51    25    49 1   
    52    25    50 1   
    53    26    27 1   
    54    26    51 1   
    55    26    52 1   
    56    27    53 1   
    57    27    54 1   
    58    28    55 1   
    59    28    56 1   
@<TRIPOS>SUBSTRUCTURE
     1 NJI         1 TEMP              0 ****  ****    0 ROOT
