@<TRIPOS>MOLECULE
NJI
   56    59     1     0     0
SMALL
abcg2


@<TRIPOS>ATOM
      1 O1         -22.1090   -25.8410    -2.4380 o          1 NJI      -0.588100
      2 C1         -21.3800   -25.1330    -3.1390 c          1 NJI       0.605100
      3 C2         -21.4660   -25.1680    -4.6540 c3         1 NJI       0.047600
      4 N1         -20.4720   -24.3000    -2.6340 nj         1 NJI      -0.424800
      5 C3         -19.4180   -23.4570    -3.2140 cy         1 NJI       0.107000
      6 C4         -18.8980   -23.1970    -1.7640 cy         1 NJI      -0.085000
      7 C5         -17.4930   -23.7280    -1.5040 c6         1 NJI      -0.085400
      8 C6         -16.4310   -22.8150    -2.1120 c6         1 NJI       0.101000
      9 N2         -16.5800   -21.4530    -1.5900 n          1 NJI      -0.404800
     10 C7         -15.5570   -20.8950    -0.9040 c          1 NJI       0.597100
     11 O2         -14.4670   -21.4660    -0.8040 o          1 NJI      -0.609100
     12 C8         -15.7270   -19.5020    -0.2260 c6         1 NJI       0.196200
     13 N3         -16.9850   -19.3810     0.4900 nu         1 NJI      -0.999200
     14 C9         -17.4720   -20.2340     1.4490 ca         1 NJI       0.339000
     15 C10        -18.7040   -19.9300     2.0590 ca         1 NJI      -0.191500
     16 C11        -19.2820   -20.7860     2.9790 ca         1 NJI      -0.053500
     17 C12        -18.6330   -21.9680     3.3180 ca         1 NJI       0.066000
     18 CL2        -19.3690   -23.0660     4.4760 cl         1 NJI      -0.216000
     19 C13        -17.4100   -22.2840     2.7500 ca         1 NJI      -0.053500
     20 C14        -16.8290   -21.4250     1.8260 ca         1 NJI      -0.191500
     21 C15        -15.6530   -18.4190    -1.3270 c6         1 NJI      -0.119400
     22 C16        -15.5440   -17.0110    -0.7510 c6         1 NJI       0.152100
     23 O3         -14.4420   -16.8820     0.1390 os         1 NJI      -0.450000
     24 C17        -14.5410   -17.8080     1.2230 c6         1 NJI       0.152100
     25 C18        -14.5370   -19.2460     0.7300 c6         1 NJI      -0.119400
     26 C19        -17.8950   -20.8860    -1.8960 c6         1 NJI       0.101000
     27 C20        -19.0090   -21.7490    -1.3060 c6         1 NJI      -0.085400
     28 C21        -20.0390   -24.1190    -1.2490 cy         1 NJI       0.107000
     29 H1         -22.4470   -25.5150    -4.9590 h1         1 NJI       0.085200
     30 H2         -21.2260   -24.2140    -5.1140 h1         1 NJI       0.085200
     31 CL1        -20.2610   -26.3690    -5.2840 cl         1 NJI      -0.263000
     32 H4         -18.7340   -24.0030    -3.8640 h1         1 NJI       0.061950
     33 H5         -19.8020   -22.5800    -3.7370 h1         1 NJI       0.061950
     34 H6         -17.3860   -24.7340    -1.9170 hc         1 NJI       0.062450
     35 H7         -17.3310   -23.7950    -0.4240 hc         1 NJI       0.062450
     36 H8         -15.4340   -23.1670    -1.8780 h1         1 NJI       0.057200
     37 H9         -16.5370   -22.7810    -3.2010 h1         1 NJI       0.057200
     38 H10        -17.5320   -18.5540     0.3220 hn         1 NJI       0.489000
     39 H11        -19.2180   -19.0160     1.7830 ha         1 NJI       0.122000
     40 H12        -20.2350   -20.5370     3.4270 ha         1 NJI       0.128500
     41 H13        -16.9050   -23.2010     3.0190 ha         1 NJI       0.128500
     42 H14        -15.8820   -21.7060     1.3940 ha         1 NJI       0.122000
     43 H15        -16.5180   -18.4660    -1.9890 hc         1 NJI       0.071450
     44 H16        -14.7670   -18.6240    -1.9290 hc         1 NJI       0.071450
     45 H17        -15.3790   -16.2960    -1.5580 h1         1 NJI       0.048950
     46 H18        -16.4690   -16.7220    -0.2350 h1         1 NJI       0.048950
     47 H19        -13.6770   -17.6230     1.8610 h1         1 NJI       0.048950
     48 H20        -15.4490   -17.5980     1.8010 h1         1 NJI       0.048950
     49 H21        -14.5850   -19.9200     1.5850 hc         1 NJI       0.071450
     50 H22        -13.6040   -19.4460     0.2060 hc         1 NJI       0.071450
     51 H23        -17.9740   -19.8740    -1.5280 h1         1 NJI       0.057200
     52 H24        -17.9900   -20.8540    -2.9870 h1         1 NJI       0.057200
     53 H25        -18.9530   -21.7150    -0.2170 hc         1 NJI       0.062450
     54 H26        -19.9760   -21.3330    -1.5990 hc         1 NJI       0.062450
     55 H27        -20.7860   -23.6320    -0.6190 h1         1 NJI       0.061950
     56 H28        -19.7110   -25.0470    -0.7780 h1         1 NJI       0.061950
@<TRIPOS>BOND
     1     1     2 2   
     2     2     3 1   
     3     2     4 1   
     4     3    29 1   
     5     3    30 1   
     6     3    31 1   
     7     4     5 1   
     8     4    28 1   
     9     5     6 1   
    10     5    32 1   
    11     5    33 1   
    12     6     7 1   
    13     6    27 1   
    14     6    28 1   
    15     7     8 1   
    16     7    34 1   
    17     7    35 1   
    18     8     9 1   
    19     8    36 1   
    20     8    37 1   
    21     9    10 1   
    22     9    26 1   
    23    10    11 2   
    24    10    12 1   
    25    12    13 1   
    26    12    21 1   
    27    12    25 1   
    28    13    14 1   
    29    13    38 1   
    30    14    15 ar  
    31    14    20 ar  
    32    15    16 ar  
    33    15    39 1   
    34    16    17 ar  
    35    16    40 1   
    36    17    18 1   
    37    17    19 ar  
    38    19    20 ar  
    39    19    41 1   
    40    20    42 1   
    41    21    22 1   
    42    21    43 1   
    43    21    44 1   
    44    22    23 1   
    45    22    45 1   
    46    22    46 1   
    47    23    24 1   
    48    24    25 1   
    49    24    47 1   
    50    24    48 1   
    51    25    49 1   
    52    25    50 1   
    53    26    27 1   
    54    26    51 1   
    55    26    52 1   
    56    27    53 1   
    57    27    54 1   
    58    28    55 1   
    59    28    56 1   
@<TRIPOS>SUBSTRUCTURE
     1 NJI         1 TEMP              0 ****  ****    0 ROOT
