@<TRIPOS>MOLECULE
NJJ
   87    90     1     0     0
SMALL
No Charge or Current Charge


@<TRIPOS>ATOM
      1 C13          4.4110     4.2120    -2.8490 c3         1 NJJ      -0.072400
      2 C15          1.4980     1.6580    -0.4100 c3         1 NJJ       0.192800
      3 C20         -3.2050     0.2070    -0.0540 c          1 NJJ       0.642100
      4 C24         -5.9110     1.1600    -1.1070 c5         1 NJJ       0.128600
      5 C26         -6.3940    -1.1830    -1.3790 c5         1 NJJ      -0.132700
      6 C28         -5.7570    -1.4810    -2.7870 c5         1 NJJ      -0.103400
      7 C01          3.4770    -2.2300     2.1290 ca         1 NJJ      -0.069300
      8 C02          3.4980    -2.3670     0.7260 ca         1 NJJ      -0.128000
      9 C03          3.7340    -1.2530    -0.0980 ca         1 NJJ      -0.014500
     10 C04          3.9480     0.0160     0.4740 ca         1 NJJ      -0.295500
     11 C05          3.9280     0.1610     1.8760 ca         1 NJJ      -0.014500
     12 C06          3.6950    -0.9570     2.6950 ca         1 NJJ      -0.128000
     13 C11          2.5790     2.3100    -2.6460 c3         1 NJJ       0.243800
     14 C12          2.8970     3.8470    -2.7590 c3         1 NJJ      -0.074700
     15 C14          2.1560     4.7560    -1.7370 c3         1 NJJ      -0.072400
     16 C16          0.2720     0.8580    -0.9370 c3         1 NJJ       0.139300
     17 C18         -0.7010     0.3510     0.1720 c3         1 NJJ       0.089700
     18 C23         -5.4940    -0.2220    -0.5280 c5         1 NJJ       0.163300
     19 C27         -7.6280    -0.2890    -1.7400 c5         1 NJJ       0.375300
     20 C29         -7.0150    -1.4070    -3.6720 c5         1 NJJ       0.154600
     21 C31         -0.1090    -0.7280     1.1270 c3         1 NJJ      -0.061100
     22 C32         -1.1000    -1.1790     2.1950 ca         1 NJJ      -0.091300
     23 C33         -1.8060    -2.3900     2.0480 ca         1 NJJ      -0.098500
     24 C34         -2.7310    -2.7950     3.0270 ca         1 NJJ      -0.106500
     25 C35         -2.9540    -1.9930     4.1590 ca         1 NJJ      -0.105000
     26 C36         -2.2510    -0.7850     4.3110 ca         1 NJJ      -0.106500
     27 C37         -1.3280    -0.3800     3.3320 ca         1 NJJ      -0.098500
     28 C38          4.4760    -3.8210     3.8690 c3         1 NJJ       0.127600
     29 C39          0.6230     4.8110    -1.9270 c3         1 NJJ      -0.091100
     30 C40          5.1670     3.5790    -4.0390 c3         1 NJJ      -0.091100
     31 C41          3.2320    -3.4530     3.0170 c3         1 NJJ       0.209600
     32 N10          2.6720     1.5960    -1.3320 n3         1 NJJ      -0.779500
     33 N19         -1.9420    -0.1410    -0.4390 ns         1 NJJ      -0.484900
     34 O08          4.4280     2.6520     0.2120 o          1 NJJ      -0.538500
     35 O09          5.1180     1.0210    -1.6520 o          1 NJJ      -0.538500
     36 O17          0.7610    -0.2340    -1.7330 oh         1 NJJ      -0.654000
     37 O21         -3.4760     1.0260     0.8110 o          1 NJJ      -0.529000
     38 O22         -4.0950    -0.5040    -0.8090 os         1 NJJ      -0.452100
     39 O25         -7.3430     1.0290    -1.2290 os         1 NJJ      -0.444000
     40 O30         -7.6470    -0.2160    -3.1790 os         1 NJJ      -0.463000
     41 O42          2.1200    -3.2230     3.8950 oh         1 NJJ      -0.637000
     42 S07          4.1990     1.4470    -0.5910 sy         1 NJJ       1.187600
     43 H132         4.5000     5.3000    -2.9580 hc         1 NJJ       0.040700
     44 H131         4.9300     3.9690    -1.9190 hc         1 NJJ       0.040700
     45 H152         1.1950     2.6900    -0.2090 h1         1 NJJ       0.061200
     46 H151         1.7640     1.2530     0.5710 h1         1 NJJ       0.061200
     47 H242        -5.4730     1.3480    -2.0970 h1         1 NJJ       0.068200
     48 H261        -6.6850    -2.0910    -0.8400 hc         1 NJJ       0.077700
     49 H282        -5.0280    -0.7320    -3.1180 hc         1 NJJ       0.064700
     50 H281        -5.2680    -2.4600    -2.8310 hc         1 NJJ       0.064700
     51 H021         3.3310    -3.3390     0.2680 ha         1 NJJ       0.123000
     52 H031         3.7410    -1.3780    -1.1800 ha         1 NJJ       0.139000
     53 H051         4.0850     1.1360     2.3370 ha         1 NJJ       0.139000
     54 H061         3.6770    -0.8310     3.7750 ha         1 NJJ       0.123000
     55 H112         1.5580     2.1830    -3.0280 h1         1 NJJ       0.058200
     56 H111         3.2040     1.7810    -3.3750 h1         1 NJJ       0.058200
     57 H121         2.4960     4.1360    -3.7390 hc         1 NJJ       0.052700
     58 H141         2.4010     4.4480    -0.7150 hc         1 NJJ       0.040700
     59 H142         2.5280     5.7830    -1.8330 hc         1 NJJ       0.040700
     60 H161        -0.2950     1.5430    -1.5820 h1         1 NJJ       0.093700
     61 H181        -0.9560     1.2240     0.7890 h1         1 NJJ       0.092700
     62 H231        -5.7080    -0.3070     0.5480 h1         1 NJJ       0.078700
     63 H271        -8.5750    -0.6850    -1.3460 h2         1 NJJ       0.086700
     64 H291        -6.7860    -1.3040    -4.7410 h1         1 NJJ       0.049200
     65 H292        -7.6820    -2.2680    -3.5240 h1         1 NJJ       0.049200
     66 H312         0.2220    -1.5910     0.5380 hc         1 NJJ       0.052200
     67 H311         0.7900    -0.3420     1.6200 hc         1 NJJ       0.052200
     68 H331        -1.6440    -3.0150     1.1730 ha         1 NJJ       0.111000
     69 H341        -3.2750    -3.7290     2.9070 ha         1 NJJ       0.113500
     70 H351        -3.6690    -2.3060     4.9160 ha         1 NJJ       0.113000
     71 H361        -2.4240    -0.1630     5.1860 ha         1 NJJ       0.113500
     72 H371        -0.7910     0.5580     3.4560 ha         1 NJJ       0.111000
     73 H381         5.3080    -4.0630     3.1940 h1         1 NJJ       0.029200
     74 H382         4.7780    -2.9540     4.4710 h1         1 NJJ       0.029200
     75 H392         0.1680     3.8170    -1.8820 hc         1 NJJ       0.034700
     76 H391         0.1660     5.4320    -1.1480 hc         1 NJJ       0.034700
     77 H393         0.3740     5.2520    -2.9000 hc         1 NJJ       0.034700
     78 H403         5.2370     2.4910    -3.9420 hc         1 NJJ       0.034700
     79 H402         4.6670     3.8130    -4.9860 hc         1 NJJ       0.034700
     80 H401         6.1890     3.9750    -4.0890 hc         1 NJJ       0.034700
     81 H411         3.0170    -4.3140     2.3680 h1         1 NJJ       0.094700
     82 H191        -1.8770    -0.8260    -1.1800 hn         1 NJJ       0.329500
     83 H171         1.6980     0.0280    -1.9010 ho         1 NJJ       0.445000
     84 H421         2.2320    -3.8910     4.6090 ho         1 NJJ       0.445000
     85 H431         5.0130    -5.1690     5.2010 ho         1 NJJ       0.449000
     86 O43          4.1830    -4.9430     4.7230 oh         1 NJJ      -0.649000
     87 H241        -5.6680     1.9970    -0.4400 h1         1 NJJ       0.068200
@<TRIPOS>BOND
     1     1    14 1   
     2     1    30 1   
     3     1    43 1   
     4     1    44 1   
     5     2    16 1   
     6     2    32 1   
     7     2    45 1   
     8     2    46 1   
     9     3    33 1   
    10     3    37 2   
    11     3    38 1   
    12     4    18 1   
    13     4    39 1   
    14     4    47 1   
    15     4    87 1   
    16     5     6 1   
    17     5    18 1   
    18     5    19 1   
    19     5    48 1   
    20     6    20 1   
    21     6    49 1   
    22     6    50 1   
    23     7     8 ar  
    24     7    12 ar  
    25     7    31 1   
    26     8     9 ar  
    27     8    51 1   
    28     9    10 ar  
    29     9    52 1   
    30    10    11 ar  
    31    10    42 1   
    32    11    12 ar  
    33    11    53 1   
    34    12    54 1   
    35    13    14 1   
    36    13    32 1   
    37    13    55 1   
    38    13    56 1   
    39    14    15 1   
    40    14    57 1   
    41    15    29 1   
    42    15    58 1   
    43    15    59 1   
    44    16    17 1   
    45    16    36 1   
    46    16    60 1   
    47    17    21 1   
    48    17    33 1   
    49    17    61 1   
    50    18    38 1   
    51    18    62 1   
    52    19    39 1   
    53    19    40 1   
    54    19    63 1   
    55    20    40 1   
    56    20    64 1   
    57    20    65 1   
    58    21    22 1   
    59    21    66 1   
    60    21    67 1   
    61    22    23 ar  
    62    22    27 ar  
    63    23    24 ar  
    64    23    68 1   
    65    24    25 ar  
    66    24    69 1   
    67    25    26 ar  
    68    25    70 1   
    69    26    27 ar  
    70    26    71 1   
    71    27    72 1   
    72    28    31 1   
    73    28    73 1   
    74    28    74 1   
    75    28    86 1   
    76    29    75 1   
    77    29    76 1   
    78    29    77 1   
    79    30    78 1   
    80    30    79 1   
    81    30    80 1   
    82    31    41 1   
    83    31    81 1   
    84    32    42 1   
    85    33    82 1   
    86    34    42 2   
    87    35    42 2   
    88    36    83 1   
    89    41    84 1   
    90    85    86 1   
@<TRIPOS>SUBSTRUCTURE
     1 NJJ         1 TEMP              0 ****  ****    0 ROOT
