@<TRIPOS>MOLECULE
NJJ
   87    90     1     0     0
SMALL
bcc


@<TRIPOS>ATOM
      1 C13          4.4560     4.4360    -2.1500 c3         1 NJJ      -0.072400
      2 C15          1.6460     1.9970     0.0330 c3         1 NJJ       0.192800
      3 C20         -2.9800     0.5530    -0.2580 c          1 NJJ       0.758100
      4 C24         -5.8040     0.5140    -1.6540 c5         1 NJJ       0.105400
      5 C26         -5.8160    -1.6820    -0.7650 c5         1 NJJ      -0.132700
      6 C28         -5.2440    -2.5520    -1.8860 c5         1 NJJ      -0.103400
      7 C01          3.3290    -2.7890     1.1110 ca         1 NJJ      -0.069300
      8 C02          3.8080    -2.4500    -0.1550 ca         1 NJJ      -0.146000
      9 C03          4.1100    -1.1390    -0.4760 ca         1 NJJ      -0.032500
     10 C04          3.9400    -0.1510     0.4870 ca         1 NJJ      -0.295500
     11 C05          3.4860    -0.4690     1.7580 ca         1 NJJ      -0.032500
     12 C06          3.1710    -1.7870     2.0610 ca         1 NJJ      -0.146000
     13 C11          2.8870     2.4070    -2.1440 c3         1 NJJ       0.243800
     14 C12          3.0560     3.9010    -2.4630 c3         1 NJJ      -0.074700
     15 C14          1.9880     4.8010    -1.8320 c3         1 NJJ      -0.072400
     16 C16          0.5900     1.0560    -0.5570 c3         1 NJJ       0.116100
     17 C18         -0.6490     0.9860     0.3500 c3         1 NJJ       0.089700
     18 C23         -5.1420    -0.3300    -0.5690 c5         1 NJJ       0.140100
     19 C27         -7.2050    -1.2850    -1.2940 c5         1 NJJ       0.328900
     20 C29         -6.5060    -3.1180    -2.5140 c5         1 NJJ       0.131400
     21 C31         -0.3670     0.3870     1.7430 c3         1 NJJ      -0.061100
     22 C32         -1.6260     0.2570     2.5520 ca         1 NJJ      -0.091300
     23 C33         -2.3730    -0.9170     2.5200 ca         1 NJJ      -0.116500
     24 C34         -3.5790    -1.0110     3.2020 ca         1 NJJ      -0.124500
     25 C35         -4.0500     0.0710     3.9340 ca         1 NJJ      -0.123000
     26 C36         -3.3040     1.2420     3.9850 ca         1 NJJ      -0.124500
     27 C37         -2.1040     1.3330     3.2950 ca         1 NJJ      -0.116500
     28 C38          4.3230    -4.9850     1.6680 c3         1 NJJ       0.104400
     29 C39          0.5600     4.5260    -2.2830 c3         1 NJJ      -0.091100
     30 C40          5.5370     3.9490    -3.1060 c3         1 NJJ      -0.091100
     31 C41          3.0170    -4.2370     1.4240 c3         1 NJJ       0.186400
     32 N10          2.8890     2.0500    -0.7240 n3         1 NJJ      -0.779500
     33 N19         -1.6730     0.2270    -0.3310 ns         1 NJJ      -0.551900
     34 O08          4.4040     2.2800     1.2840 o          1 NJJ      -0.609300
     35 O09          5.3350     1.5420    -0.9270 o          1 NJJ      -0.609300
     36 O17          1.0840    -0.2190    -0.8790 oh         1 NJJ      -0.591800
     37 O21         -3.4260     1.6140     0.1170 o          1 NJJ      -0.578000
     38 O22         -3.7380    -0.4630    -0.6960 os         1 NJJ      -0.428900
     39 O25         -7.1500     0.0740    -1.6380 os         1 NJJ      -0.397600
     40 O30         -7.4640    -2.0740    -2.4230 os         1 NJJ      -0.416600
     41 O42          2.1070    -4.3840     2.4810 oh         1 NJJ      -0.574800
     42 S07          4.2500     1.5370     0.0410 sy         1 NJJ       1.329200
     43 H132         4.4230     5.5290    -2.2020 hc         1 NJJ       0.040700
     44 H131         4.7260     4.2050    -1.1160 hc         1 NJJ       0.040700
     45 H152         1.2100     2.9940     0.1180 h1         1 NJJ       0.061200
     46 H151         1.8750     1.7050     1.0590 h1         1 NJJ       0.061200
     47 H242        -5.3250     0.3440    -2.6270 h1         1 NJJ       0.068200
     48 H261        -5.8860    -2.2440     0.1670 hc         1 NJJ       0.077700
     49 H282        -4.6930    -1.9620    -2.6210 hc         1 NJJ       0.064700
     50 H281        -4.5770    -3.3290    -1.5180 hc         1 NJJ       0.064700
     51 H021         3.9310    -3.2180    -0.9100 ha         1 NJJ       0.141000
     52 H031         4.4580    -0.8950    -1.4700 ha         1 NJJ       0.157000
     53 H051         3.3760     0.2930     2.5180 ha         1 NJJ       0.157000
     54 H061         2.8000    -2.0180     3.0500 ha         1 NJJ       0.141000
     55 H112         1.9470     2.0510    -2.5680 h1         1 NJJ       0.058200
     56 H111         3.6610     1.8380    -2.6550 h1         1 NJJ       0.058200
     57 H121         2.9220     3.9620    -3.5520 hc         1 NJJ       0.052700
     58 H141         2.0620     4.7590    -0.7410 hc         1 NJJ       0.040700
     59 H142         2.2320     5.8330    -2.0970 hc         1 NJJ       0.040700
     60 H161         0.2430     1.4690    -1.5080 h1         1 NJJ       0.093700
     61 H181        -1.0240     2.0040     0.4800 h1         1 NJJ       0.092700
     62 H231        -5.3910     0.0710     0.4170 h1         1 NJJ       0.078700
     63 H271        -8.0150    -1.4050    -0.5690 h2         1 NJJ       0.086700
     64 H291        -6.3830    -3.3900    -3.5630 h1         1 NJJ       0.049200
     65 H292        -6.8500    -4.0050    -1.9710 h1         1 NJJ       0.049200
     66 H312         0.0910    -0.6020     1.6400 hc         1 NJJ       0.052200
     67 H311         0.3480     1.0150     2.2780 hc         1 NJJ       0.052200
     68 H331        -2.0080    -1.7690     1.9590 ha         1 NJJ       0.129000
     69 H341        -4.1500    -1.9300     3.1640 ha         1 NJJ       0.131500
     70 H351        -4.9880    -0.0010     4.4700 ha         1 NJJ       0.131000
     71 H361        -3.6600     2.0860     4.5610 ha         1 NJJ       0.131500
     72 H371        -1.5330     2.2540     3.3300 ha         1 NJJ       0.129000
     73 H381         4.9950    -4.8050     0.8200 h1         1 NJJ       0.029200
     74 H382         4.8140    -4.5560     2.5540 h1         1 NJJ       0.029200
     75 H392         0.1980     3.5390    -1.9950 hc         1 NJJ       0.034700
     76 H391        -0.1290     5.2530    -1.8520 hc         1 NJJ       0.034700
     77 H393         0.4740     4.5950    -3.3690 hc         1 NJJ       0.034700
     78 H403         5.6330     2.8650    -3.1090 hc         1 NJJ       0.034700
     79 H402         5.3210     4.2670    -4.1270 hc         1 NJJ       0.034700
     80 H401         6.5110     4.3580    -2.8330 hc         1 NJJ       0.034700
     81 H411         2.5330    -4.6720     0.5420 h1         1 NJJ       0.094700
     82 H191        -1.4390    -0.7200    -0.5900 hn         1 NJJ       0.329500
     83 H171         1.4630    -0.6310    -0.0970 ho         1 NJJ       0.406000
     84 H421         2.5780    -4.3480     3.3200 ho         1 NJJ       0.406000
     85 H431         4.8500    -6.7960     2.0930 ho         1 NJJ       0.410000
     86 O43          4.0380    -6.3510     1.8330 oh         1 NJJ      -0.586800
     87 H241        -5.7850     1.5830    -1.4450 h1         1 NJJ       0.068200
@<TRIPOS>BOND
     1     1    14 1   
     2     1    30 1   
     3     1    43 1   
     4     1    44 1   
     5     2    16 1   
     6     2    32 1   
     7     2    45 1   
     8     2    46 1   
     9     3    33 1   
    10     3    37 2   
    11     3    38 1   
    12     4    18 1   
    13     4    39 1   
    14     4    47 1   
    15     4    87 1   
    16     5     6 1   
    17     5    18 1   
    18     5    19 1   
    19     5    48 1   
    20     6    20 1   
    21     6    49 1   
    22     6    50 1   
    23     7     8 ar  
    24     7    12 ar  
    25     7    31 1   
    26     8     9 ar  
    27     8    51 1   
    28     9    10 ar  
    29     9    52 1   
    30    10    11 ar  
    31    10    42 1   
    32    11    12 ar  
    33    11    53 1   
    34    12    54 1   
    35    13    14 1   
    36    13    32 1   
    37    13    55 1   
    38    13    56 1   
    39    14    15 1   
    40    14    57 1   
    41    15    29 1   
    42    15    58 1   
    43    15    59 1   
    44    16    17 1   
    45    16    36 1   
    46    16    60 1   
    47    17    21 1   
    48    17    33 1   
    49    17    61 1   
    50    18    38 1   
    51    18    62 1   
    52    19    39 1   
    53    19    40 1   
    54    19    63 1   
    55    20    40 1   
    56    20    64 1   
    57    20    65 1   
    58    21    22 1   
    59    21    66 1   
    60    21    67 1   
    61    22    23 ar  
    62    22    27 ar  
    63    23    24 ar  
    64    23    68 1   
    65    24    25 ar  
    66    24    69 1   
    67    25    26 ar  
    68    25    70 1   
    69    26    27 ar  
    70    26    71 1   
    71    27    72 1   
    72    28    31 1   
    73    28    73 1   
    74    28    74 1   
    75    28    86 1   
    76    29    75 1   
    77    29    76 1   
    78    29    77 1   
    79    30    78 1   
    80    30    79 1   
    81    30    80 1   
    82    31    41 1   
    83    31    81 1   
    84    32    42 1   
    85    33    82 1   
    86    34    42 2   
    87    35    42 2   
    88    36    83 1   
    89    41    84 1   
    90    85    86 1   
@<TRIPOS>SUBSTRUCTURE
     1 NJJ         1 TEMP              0 ****  ****    0 ROOT
