@<TRIPOS>MOLECULE
NJK
   62    67     1     0     0
SMALL
abcg2


@<TRIPOS>ATOM
      1 FBH        -27.8870    -6.1100    -1.2110 f          1 NJK      -0.161000
      2 CBG        -28.8850    -6.4600    -0.3930 ca         1 NJK       0.194000
      3 CBI        -29.9350    -7.2140    -0.8720 ca         1 NJK      -0.150000
      4 CBJ        -30.9540    -7.5660     0.0040 ca         1 NJK      -0.076000
      5 CBK        -30.9120    -7.1680     1.3330 ca         1 NJK      -0.125000
      6 CBL        -29.8440    -6.4140     1.7960 ca         1 NJK      -0.065000
      7 CBF        -28.8250    -6.0540     0.9300 ca         1 NJK      -0.029200
      8 NBE        -27.7440    -5.2510     1.3640 na         1 NJK      -0.259800
      9 CAJ        -26.4380    -5.5880     1.5720 cc         1 NJK       0.366500
     10 CAG        -25.8740    -6.9310     1.4670 ca         1 NJK       0.269000
     11 CAF        -24.4910    -7.1100     1.4220 ca         1 NJK      -0.073000
     12 CAE        -23.9930    -8.3910     1.3340 ca         1 NJK      -0.123000
     13 NAH        -26.7160    -7.9510     1.4310 nb         1 NJK      -0.643000
     14 CAI        -26.2460    -9.1860     1.3430 ca         1 NJK       0.252900
     15 CAD        -24.8800    -9.4680     1.2900 ca         1 NJK       0.112100
     16 OAC        -24.3530   -10.6930     1.2000 os         1 NJK      -0.339100
     17 CAB        -25.2220   -11.8230     1.1640 c3         1 NJK       0.163600
     18 CAA        -24.3680   -13.0620     1.0570 c3         1 NJK      -0.096100
     19 NAK        -25.7660    -4.5180     1.8880 nd         1 NJK      -0.359000
     20 NAL        -26.6160    -3.4650     1.8830 nd         1 NJK      -0.351000
     21 CAM        -27.7990    -3.9020     1.5650 cc         1 NJK       0.409800
     22 CAN        -29.0330    -3.1000     1.4250 cy         1 NJK      -0.119000
     23 CAQ        -30.0510    -3.0880     2.5930 cy         1 NJK      -0.089900
     24 CAO        -28.9120    -1.5740     1.5790 cy         1 NJK      -0.089900
     25 CAP        -30.2330    -1.5780     2.3770 cy         1 NJK       0.103700
     26 NAR        -31.4000    -1.3030     1.5740 ns         1 NJK      -0.483900
     27 CAS        -31.6880    -0.0760     1.1350 c          1 NJK       0.500600
     28 OAT        -31.0040     0.9120     1.3650 o          1 NJK      -0.597100
     29 CAU        -32.9490     0.0260     0.3180 ca         1 NJK       0.315500
     30 NBD        -33.6270    -1.0720     0.1140 nb         1 NJK      -0.668000
     31 CBC        -34.7600    -1.0100    -0.6110 ca         1 NJK       0.223000
     32 CBB        -35.5100    -2.1850    -0.8450 ca         1 NJK      -0.044000
     33 CBA        -36.6540    -2.0910    -1.5810 ca         1 NJK      -0.162000
     34 CAZ        -37.0450    -0.8290    -2.0830 ca         1 NJK       0.358900
     35 NAY        -36.3760     0.2750    -1.8870 nb         1 NJK      -0.650000
     36 CAX        -35.2390     0.2030    -1.1580 ca         1 NJK       0.235000
     37 CAW        -34.4840     1.3710    -0.9210 ca         1 NJK      -0.053000
     38 CAV        -33.3390     1.2860    -0.1830 ca         1 NJK      -0.112000
     39 HBI        -29.9560    -7.5190    -1.9090 ha         1 NJK       0.137000
     40 HBJ        -31.7850    -8.1550    -0.3600 ha         1 NJK       0.120000
     41 HBK        -31.7050    -7.4480     2.0120 ha         1 NJK       0.123000
     42 HBL        -29.7900    -6.1100     2.8330 ha         1 NJK       0.131000
     43 HAG        -23.8210    -6.2620     1.4510 ha         1 NJK       0.152000
     44 HAF        -22.9250    -8.5660     1.2940 ha         1 NJK       0.138000
     45 HAI        -26.9910    -9.9720     1.3170 h4         1 NJK       0.022100
     46 HAE        -25.9000   -11.7470     0.3080 h1         1 NJK       0.036700
     47 HAD        -25.8330   -11.8540     2.0720 h1         1 NJK       0.036700
     48 HAB        -25.0100   -13.9420     1.0330 hc         1 NJK       0.050367
     49 HAC        -23.7720   -13.0570     0.1440 hc         1 NJK       0.050367
     50 HAA        -23.6980   -13.1590     1.9110 hc         1 NJK       0.050367
     51 HAN        -29.5350    -3.3620     0.4900 hc         1 NJK       0.073700
     52 HAR        -30.9330    -3.7230     2.4960 hc         1 NJK       0.071700
     53 HAS        -29.5770    -3.2960     3.5520 hc         1 NJK       0.071700
     54 HAO        -28.0720    -1.2960     2.2150 hc         1 NJK       0.071700
     55 HAP        -28.8750    -0.9810     0.6670 hc         1 NJK       0.071700
     56 HAQ        -30.2470    -0.9590     3.2750 h1         1 NJK       0.082700
     57 HBM        -32.0410    -2.0470     1.3360 hn         1 NJK       0.341500
     58 HBB        -35.1640    -3.1260    -0.4370 ha         1 NJK       0.133000
     59 HBA        -37.2650    -2.9600    -1.7870 ha         1 NJK       0.128000
     60 HAZ        -37.9540    -0.7510    -2.6680 h4         1 NJK       0.024100
     61 HAW        -34.8270     2.3140    -1.3270 ha         1 NJK       0.142000
     62 HAV        -32.7370     2.1610     0.0180 ha         1 NJK       0.155000
@<TRIPOS>BOND
     1     1     2 1   
     2     2     3 ar  
     3     2     7 ar  
     4     3     4 ar  
     5     3    39 1   
     6     4     5 ar  
     7     4    40 1   
     8     5     6 ar  
     9     5    41 1   
    10     6     7 ar  
    11     6    42 1   
    12     7     8 1   
    13     8     9 1   
    14     8    21 1   
    15     9    10 1   
    16     9    19 2   
    17    10    11 ar  
    18    10    13 ar  
    19    11    12 ar  
    20    11    43 1   
    21    12    15 ar  
    22    12    44 1   
    23    13    14 ar  
    24    14    15 ar  
    25    14    45 1   
    26    15    16 1   
    27    16    17 1   
    28    17    18 1   
    29    17    46 1   
    30    17    47 1   
    31    18    48 1   
    32    18    49 1   
    33    18    50 1   
    34    19    20 1   
    35    20    21 2   
    36    21    22 1   
    37    22    23 1   
    38    22    24 1   
    39    22    51 1   
    40    23    25 1   
    41    23    52 1   
    42    23    53 1   
    43    24    25 1   
    44    24    54 1   
    45    24    55 1   
    46    25    26 1   
    47    25    56 1   
    48    26    27 1   
    49    26    57 1   
    50    27    28 2   
    51    27    29 1   
    52    29    30 ar  
    53    29    38 ar  
    54    30    31 ar  
    55    31    32 ar  
    56    31    36 ar  
    57    32    33 ar  
    58    32    58 1   
    59    33    34 ar  
    60    33    59 1   
    61    34    35 ar  
    62    34    60 1   
    63    35    36 ar  
    64    36    37 ar  
    65    37    38 ar  
    66    37    61 1   
    67    38    62 1   
@<TRIPOS>SUBSTRUCTURE
     1 NJK         1 TEMP              0 ****  ****    0 ROOT
