@<TRIPOS>MOLECULE
NJK
   62    67     1     0     0
SMALL
No Charge or Current Charge


@<TRIPOS>ATOM
      1 FBH        -29.3020    -5.8150    -0.8350 f          1 NJK      -0.161000
      2 CBG        -29.6570    -6.3260     0.3680 ca         1 NJK       0.194000
      3 CBI        -30.7930    -7.1460     0.4560 ca         1 NJK      -0.150000
      4 CBJ        -31.1810    -7.6770     1.6990 ca         1 NJK      -0.076000
      5 CBK        -30.4300    -7.3840     2.8510 ca         1 NJK      -0.125000
      6 CBL        -29.2930    -6.5620     2.7630 ca         1 NJK      -0.065000
      7 CBF        -28.8980    -6.0290     1.5210 ca         1 NJK      -0.029200
      8 NBE        -27.7820    -5.1940     1.4510 na         1 NJK      -0.259800
      9 CAJ        -26.4810    -5.5780     1.1870 cc         1 NJK       0.366500
     10 CAG        -25.9300    -6.9600     1.0820 ca         1 NJK       0.269000
     11 CAF        -24.5530    -7.1320     0.7950 ca         1 NJK      -0.073000
     12 CAE        -24.0060    -8.4250     0.6900 ca         1 NJK      -0.123000
     13 NAH        -26.7420    -8.0430     1.2610 nb         1 NJK      -0.643000
     14 CAI        -26.2150    -9.2870     1.1600 ca         1 NJK       0.252900
     15 CAD        -24.8480    -9.5300     0.8750 ca         1 NJK       0.112100
     16 OAC        -24.3070   -10.7980     0.7710 os         1 NJK      -0.339100
     17 CAB        -25.1080   -11.9780     0.9470 c3         1 NJK       0.163600
     18 CAA        -24.1870   -13.1950     0.7640 c3         1 NJK      -0.096100
     19 NAK        -25.7800    -4.4570     1.0390 nd         1 NJK      -0.359000
     20 NAL        -26.6340    -3.3770     1.1630 nd         1 NJK      -0.351000
     21 CAM        -27.8590    -3.8290     1.3910 cc         1 NJK       0.409800
     22 CAN        -29.0740    -2.9580     1.5300 cy         1 NJK      -0.119000
     23 CAQ        -30.1030    -3.1680     2.6980 cy         1 NJK      -0.089900
     24 CAO        -28.9800    -1.4870     2.0710 cy         1 NJK      -0.089900
     25 CAP        -30.4700    -1.6580     2.5210 cy         1 NJK       0.103700
     26 NAR        -31.5180    -1.3100     1.5980 ns         1 NJK      -0.483900
     27 CAS        -31.9610    -0.0210     1.3580 c          1 NJK       0.500600
     28 OAT        -31.4770     0.9400     1.9490 o          1 NJK      -0.597100
     29 CAU        -33.0820     0.1020     0.3160 ca         1 NJK       0.315500
     30 NBD        -33.5530    -1.0310    -0.2880 nb         1 NJK      -0.668000
     31 CBC        -34.5440    -0.9250    -1.2110 ca         1 NJK       0.223000
     32 CBB        -35.0360    -2.0830    -1.8400 ca         1 NJK      -0.044000
     33 CBA        -36.0620    -1.9670    -2.7940 ca         1 NJK      -0.162000
     34 CAZ        -36.5730    -0.6970    -3.1000 ca         1 NJK       0.358900
     35 NAY        -36.1180     0.4330    -2.5120 nb         1 NJK      -0.650000
     36 CAX        -35.1270     0.3260    -1.5880 ca         1 NJK       0.235000
     37 CAW        -34.6330     1.4820    -0.9590 ca         1 NJK      -0.053000
     38 CAV        -33.6070     1.3700    -0.0040 ca         1 NJK      -0.112000
     39 HBI        -31.3710    -7.3680    -0.4370 ha         1 NJK       0.137000
     40 HBJ        -32.0610    -8.3130     1.7690 ha         1 NJK       0.120000
     41 HBK        -30.7300    -7.7940     3.8130 ha         1 NJK       0.123000
     42 HBL        -28.7180    -6.3380     3.6590 ha         1 NJK       0.131000
     43 HAG        -23.9080    -6.2690     0.6530 ha         1 NJK       0.152000
     44 HAF        -22.9510    -8.5660     0.4710 ha         1 NJK       0.138000
     45 HAI        -26.9180   -10.1040     1.3130 h4         1 NJK       0.022100
     46 HAE        -25.9160   -12.0150     0.2050 h1         1 NJK       0.036700
     47 HAD        -25.5500   -12.0030     1.9520 h1         1 NJK       0.036700
     48 HAB        -24.7560   -14.1230     0.8900 hc         1 NJK       0.050367
     49 HAC        -23.7440   -13.1960    -0.2390 hc         1 NJK       0.050367
     50 HAA        -23.3790   -13.1830     1.5050 hc         1 NJK       0.050367
     51 HAN        -29.5400    -3.0150     0.5390 hc         1 NJK       0.073700
     52 HAR        -30.9090    -3.8840     2.5050 hc         1 NJK       0.071700
     53 HAS        -29.6490    -3.4140     3.6660 hc         1 NJK       0.071700
     54 HAO        -28.2720    -1.3490     2.8970 hc         1 NJK       0.071700
     55 HAP        -28.7910    -0.7120     1.3220 hc         1 NJK       0.071700
     56 HAQ        -30.6910    -1.1610     3.4740 h1         1 NJK       0.082700
     57 HBM        -31.9880    -2.0300     1.0580 hn         1 NJK       0.341500
     58 HBB        -34.6260    -3.0570    -1.5880 ha         1 NJK       0.133000
     59 HBA        -36.4580    -2.8470    -3.2930 ha         1 NJK       0.128000
     60 HAZ        -37.3670    -0.5790    -3.8360 h4         1 NJK       0.024100
     61 HAW        -35.0430     2.4560    -1.2110 ha         1 NJK       0.142000
     62 HAV        -33.2210     2.2600     0.4860 ha         1 NJK       0.155000
@<TRIPOS>BOND
     1     1     2 1   
     2     2     3 ar  
     3     2     7 ar  
     4     3     4 ar  
     5     3    39 1   
     6     4     5 ar  
     7     4    40 1   
     8     5     6 ar  
     9     5    41 1   
    10     6     7 ar  
    11     6    42 1   
    12     7     8 1   
    13     8     9 1   
    14     8    21 1   
    15     9    10 1   
    16     9    19 2   
    17    10    11 ar  
    18    10    13 ar  
    19    11    12 ar  
    20    11    43 1   
    21    12    15 ar  
    22    12    44 1   
    23    13    14 ar  
    24    14    15 ar  
    25    14    45 1   
    26    15    16 1   
    27    16    17 1   
    28    17    18 1   
    29    17    46 1   
    30    17    47 1   
    31    18    48 1   
    32    18    49 1   
    33    18    50 1   
    34    19    20 1   
    35    20    21 2   
    36    21    22 1   
    37    22    23 1   
    38    22    24 1   
    39    22    51 1   
    40    23    25 1   
    41    23    52 1   
    42    23    53 1   
    43    24    25 1   
    44    24    54 1   
    45    24    55 1   
    46    25    26 1   
    47    25    56 1   
    48    26    27 1   
    49    26    57 1   
    50    27    28 2   
    51    27    29 1   
    52    29    30 ar  
    53    29    38 ar  
    54    30    31 ar  
    55    31    32 ar  
    56    31    36 ar  
    57    32    33 ar  
    58    32    58 1   
    59    33    34 ar  
    60    33    59 1   
    61    34    35 ar  
    62    34    60 1   
    63    35    36 ar  
    64    36    37 ar  
    65    37    38 ar  
    66    37    61 1   
    67    38    62 1   
@<TRIPOS>SUBSTRUCTURE
     1 NJK         1 TEMP              0 ****  ****    0 ROOT
