@<TRIPOS>MOLECULE
NJL
   40    42     1     0     0
SMALL
No Charge or Current Charge


@<TRIPOS>ATOM
      1 C10        -19.3140    27.6590   -30.5090 cc         1 NJL       0.524200
      2 N12        -18.3640    28.5160   -31.0270 n          1 NJL      -0.358300
      3 C15        -18.9270    26.4430   -29.8080 ce         1 NJL      -0.305600
      4 C17        -19.3060    24.0060   -29.0780 ca         1 NJL      -0.121800
      5 C20        -18.7200    21.5420   -27.8250 ca         1 NJL       0.161100
      6 C21        -19.9170    21.7010   -28.5350 ca         1 NJL      -0.184500
      7 C22        -20.2100    22.9260   -29.1590 ca         1 NJL      -0.042000
      8 C01        -23.8480    30.5210   -32.2920 ca         1 NJL      -0.096000
      9 C02        -25.2300    30.2630   -32.3250 ca         1 NJL       0.114500
     10 C03        -25.7120    28.9380   -32.2900 ca         1 NJL       0.085100
     11 C04        -24.7850    27.8780   -32.2260 ca         1 NJL       0.114500
     12 C05        -23.4040    28.1350   -32.1920 ca         1 NJL      -0.096000
     13 C06        -22.9220    29.4610   -32.2150 ca         1 NJL      -0.060800
     14 C07        -21.4600    29.7720   -32.1920 ce         1 NJL      -0.046200
     15 C08        -20.4000    29.0920   -31.6230 cd         1 NJL      -0.003600
     16 C09        -18.9870    29.5000   -31.7520 c          1 NJL       0.536200
     17 C14        -16.8990    28.4240   -30.8690 c3         1 NJL       0.099300
     18 C16        -19.6420    25.2810   -29.7450 cf         1 NJL      -0.063200
     19 C18        -18.1020    23.8340   -28.3600 ca         1 NJL      -0.042000
     20 C19        -17.8120    22.6070   -27.7370 ca         1 NJL      -0.184500
     21 F24        -26.0930    31.3040   -32.3920 f          1 NJL      -0.171000
     22 N11        -20.5690    27.9350   -30.8640 nd         1 NJL      -0.620300
     23 O13        -18.4820    30.4450   -32.3440 o          1 NJL      -0.507000
     24 O25        -27.0640    28.6830   -32.3240 oh         1 NJL      -0.504100
     25 O26        -18.4460    20.3500   -27.2240 oh         1 NJL      -0.526100
     26 H1         -17.9530    26.4910   -29.3310 ha         1 NJL       0.185000
     27 H2         -20.6210    20.8760   -28.6030 ha         1 NJL       0.125000
     28 H3         -21.1440    23.0330   -29.7070 ha         1 NJL       0.116000
     29 H4         -23.5000    31.5510   -32.3190 ha         1 NJL       0.153000
     30 H5         -22.7160    27.2960   -32.1610 ha         1 NJL       0.153000
     31 H6         -21.1820    30.6810   -32.7280 ha         1 NJL       0.196000
     32 H7         -16.5540    27.4330   -31.1890 h1         1 NJL       0.050700
     33 H8         -16.3960    29.1850   -31.4790 h1         1 NJL       0.050700
     34 H9         -16.6320    28.5780   -29.8160 h1         1 NJL       0.050700
     35 H10        -20.6080    25.2720   -30.2570 ha         1 NJL       0.195000
     36 H11        -17.3830    24.6440   -28.2760 ha         1 NJL       0.116000
     37 H12        -16.8800    22.4940   -27.1880 ha         1 NJL       0.125000
     38 H13        -27.1970    27.7100   -32.2930 ho         1 NJL       0.483000
     39 H14        -17.5750    20.4220   -26.7780 ho         1 NJL       0.470000
     40 F23        -25.2210    26.5970   -32.2020 f          1 NJL      -0.171000
@<TRIPOS>BOND
     1     1     2 1   
     2     1     3 1   
     3     1    22 2   
     4     2    16 1   
     5     2    17 1   
     6     3    18 2   
     7     3    26 1   
     8     4     7 ar  
     9     4    18 1   
    10     4    19 ar  
    11     5     6 ar  
    12     5    20 ar  
    13     5    25 1   
    14     6     7 ar  
    15     6    27 1   
    16     7    28 1   
    17     8     9 ar  
    18     8    13 ar  
    19     8    29 1   
    20     9    10 ar  
    21     9    21 1   
    22    10    11 ar  
    23    10    24 1   
    24    11    12 ar  
    25    11    40 1   
    26    12    13 ar  
    27    12    30 1   
    28    13    14 1   
    29    14    15 2   
    30    14    31 1   
    31    15    16 1   
    32    15    22 1   
    33    16    23 2   
    34    17    32 1   
    35    17    33 1   
    36    17    34 1   
    37    18    35 1   
    38    19    20 ar  
    39    19    36 1   
    40    20    37 1   
    41    24    38 1   
    42    25    39 1   
@<TRIPOS>SUBSTRUCTURE
     1 NJL         1 TEMP              0 ****  ****    0 ROOT
