@<TRIPOS>MOLECULE
NJL
   40    42     1     0     0
SMALL
abcg2


@<TRIPOS>ATOM
      1 C10        -19.2360    27.5230   -30.6890 cc         1 NJL       0.524200
      2 N12        -18.3590    28.5580   -30.9560 n          1 NJL      -0.358300
      3 C15        -18.7810    26.3040   -30.0700 ce         1 NJL      -0.305600
      4 C17        -19.2920    24.0230   -29.1800 ca         1 NJL      -0.121800
      5 C20        -18.7930    21.5740   -27.8960 ca         1 NJL       0.161100
      6 C21        -20.0490    21.8340   -28.4440 ca         1 NJL      -0.184500
      7 C22        -20.2850    23.0410   -29.0720 ca         1 NJL      -0.042000
      8 C01        -23.7810    30.3560   -32.6590 ca         1 NJL      -0.096000
      9 C02        -25.1200    30.0650   -32.7520 ca         1 NJL       0.114500
     10 C03        -25.6490    28.8410   -32.3520 ca         1 NJL       0.085100
     11 C04        -24.7370    27.9160   -31.8470 ca         1 NJL       0.114500
     12 C05        -23.3920    28.1680   -31.7350 ca         1 NJL      -0.096000
     13 C06        -22.8870    29.4080   -32.1430 ca         1 NJL      -0.060800
     14 C07        -21.4890    29.7710   -32.0560 ce         1 NJL      -0.046200
     15 C08        -20.4550    29.0520   -31.5720 cd         1 NJL      -0.003600
     16 C09        -19.0700    29.5860   -31.5310 c          1 NJL       0.536200
     17 C14        -16.9410    28.5840   -30.6860 c3         1 NJL       0.099300
     18 C16        -19.6160    25.2760   -29.8300 cf         1 NJL      -0.063200
     19 C18        -18.0370    23.7390   -28.6280 ca         1 NJL      -0.042000
     20 C19        -17.7870    22.5390   -27.9960 ca         1 NJL      -0.184500
     21 F24        -25.9710    30.9760   -33.2400 f          1 NJL      -0.171000
     22 N11        -20.4620    27.7810   -31.0380 nd         1 NJL      -0.620300
     23 O13        -18.6280    30.6550   -31.8970 o          1 NJL      -0.507000
     24 O25        -26.9630    28.6310   -32.4710 oh         1 NJL      -0.504100
     25 O26        -18.6090    20.3970   -27.2840 oh         1 NJL      -0.526100
     26 H1         -17.7350    26.2490   -29.7970 ha         1 NJL       0.185000
     27 H2         -20.8330    21.0920   -28.3710 ha         1 NJL       0.125000
     28 H3         -21.2670    23.2320   -29.4880 ha         1 NJL       0.116000
     29 H4         -23.4270    31.3260   -32.9850 ha         1 NJL       0.153000
     30 H5         -22.7370    27.4080   -31.3320 ha         1 NJL       0.153000
     31 H6         -21.2400    30.7620   -32.4220 ha         1 NJL       0.196000
     32 H7         -16.4240    27.7950   -31.2290 h1         1 NJL       0.050700
     33 H8         -16.5470    29.5430   -31.0110 h1         1 NJL       0.050700
     34 H9         -16.7430    28.4740   -29.6200 h1         1 NJL       0.050700
     35 H10        -20.6500    25.3840   -30.1440 ha         1 NJL       0.195000
     36 H11        -17.2360    24.4660   -28.6790 ha         1 NJL       0.116000
     37 H12        -16.8070    22.3480   -27.5720 ha         1 NJL       0.125000
     38 H13        -27.2080    27.7500   -32.1630 ho         1 NJL       0.483000
     39 H14        -17.7100    20.3230   -26.9410 ho         1 NJL       0.470000
     40 F23        -25.2240    26.7260   -31.4580 f          1 NJL      -0.171000
@<TRIPOS>BOND
     1     1     2 1   
     2     1     3 1   
     3     1    22 2   
     4     2    16 1   
     5     2    17 1   
     6     3    18 2   
     7     3    26 1   
     8     4     7 ar  
     9     4    18 1   
    10     4    19 ar  
    11     5     6 ar  
    12     5    20 ar  
    13     5    25 1   
    14     6     7 ar  
    15     6    27 1   
    16     7    28 1   
    17     8     9 ar  
    18     8    13 ar  
    19     8    29 1   
    20     9    10 ar  
    21     9    21 1   
    22    10    11 ar  
    23    10    24 1   
    24    11    12 ar  
    25    11    40 1   
    26    12    13 ar  
    27    12    30 1   
    28    13    14 1   
    29    14    15 2   
    30    14    31 1   
    31    15    16 1   
    32    15    22 1   
    33    16    23 2   
    34    17    32 1   
    35    17    33 1   
    36    17    34 1   
    37    18    35 1   
    38    19    20 ar  
    39    19    36 1   
    40    20    37 1   
    41    24    38 1   
    42    25    39 1   
@<TRIPOS>SUBSTRUCTURE
     1 NJL         1 TEMP              0 ****  ****    0 ROOT
