@<TRIPOS>MOLECULE
NJM
   77    80     1     0     0
SMALL
bcc


@<TRIPOS>ATOM
      1 C13          0.8080    -1.2020    -0.4080 c3         1 NJM       0.087100
      2 C15         -0.3910    -2.0760    -0.0000 c3         1 NJM       0.091700
      3 C17         -2.1250    -0.4550     0.5580 c          1 NJM       0.750100
      4 C20         -3.6150     1.3600     0.7050 c5         1 NJM       0.150100
      5 C21         -2.5890     2.4210     1.1560 c5         1 NJM       0.108400
      6 C24         -4.4210     3.5740     0.3130 c5         1 NJM       0.336900
      7 C26         -4.6550     3.7090    -1.9750 c5         1 NJM       0.123400
      8 C28         -0.4230    -3.4420    -0.6920 c3         1 NJM      -0.039100
      9 C01          0.7950     3.8110    -0.0610 ca         1 NJM      -0.072300
     10 C02          1.0260     3.4200     1.2520 ca         1 NJM      -0.137000
     11 C03          1.8440     2.3360     1.5440 ca         1 NJM      -0.033000
     12 C04          2.4380     1.6400     0.5040 ca         1 NJM      -0.287500
     13 C05          2.2090     2.0030    -0.8200 ca         1 NJM      -0.033000
     14 C06          1.3780     3.0740    -1.0930 ca         1 NJM      -0.137000
     15 C11          4.1030    -1.1790    -1.3070 c3         1 NJM       0.235800
     16 C12          2.1240    -1.7470     0.1400 c3         1 NJM       0.188800
     17 C23         -4.5750     2.1410    -0.1770 c5         1 NJM      -0.133700
     18 C25         -4.1700     2.3010    -1.6460 c5         1 NJM      -0.098400
     19 C29         -1.4560    -4.3490    -0.0860 ca         1 NJM      -0.083300
     20 C30         -1.1590    -5.0850     1.0590 ca         1 NJM      -0.117500
     21 C31         -2.1150    -5.8980     1.6520 ca         1 NJM      -0.125000
     22 C32         -3.3890    -5.9880     1.1050 ca         1 NJM      -0.123000
     23 C33         -3.6960    -5.2620    -0.0380 ca         1 NJM      -0.125000
     24 C34         -2.7350    -4.4500    -0.6270 ca         1 NJM      -0.117500
     25 C35          4.9530    -2.4420    -1.1710 c3         1 NJM      -0.076700
     26 C36          5.7230    -2.6520    -2.4700 c3         1 NJM      -0.091100
     27 C37          5.8950    -2.3810     0.0230 c3         1 NJM      -0.091100
     28 N10          3.2760    -0.8980    -0.1340 n3         1 NJM      -0.791500
     29 N16         -1.6240    -1.3750    -0.2870 ns         1 NJM      -0.539900
     30 O14          0.8470    -0.9650    -1.7930 oh         1 NJM      -0.588800
     31 O18         -1.7950    -0.3060     1.7170 o          1 NJM      -0.586000
     32 O19         -3.0540     0.2930    -0.0490 os         1 NJM      -0.426900
     33 O22         -3.0410     3.6720     0.6550 os         1 NJM      -0.455600
     34 O27         -4.7050     4.4210    -0.7330 os         1 NJM      -0.390600
     35 O39         -1.1540     4.7150    -1.2080 oh         1 NJM      -0.606800
     36 S07          3.6020     0.3490     0.8720 sy         1 NJM       1.331200
     37 H131         0.6370    -0.2210     0.0450 h1         1 NJM       0.093700
     38 H151        -0.3400    -2.2320     1.0800 h1         1 NJM       0.098700
     39 H201        -4.1420     0.9530     1.5710 h1         1 NJM       0.073700
     40 H212        -2.5200     2.4520     2.2450 h1         1 NJM       0.069700
     41 H211        -1.5880     2.2360     0.7620 h1         1 NJM       0.069700
     42 H241        -5.0360     3.8480     1.1770 h2         1 NJM       0.088700
     43 H262        -3.9920     4.2290    -2.6680 h1         1 NJM       0.056200
     44 H261        -5.6580     3.6990    -2.4080 h1         1 NJM       0.056200
     45 H281        -0.6250    -3.3110    -1.7600 hc         1 NJM       0.051200
     46 H282         0.5610    -3.9110    -0.6200 hc         1 NJM       0.051200
     47 H021         0.5650     3.9670     2.0650 ha         1 NJM       0.140500
     48 H031         2.0090     2.0470     2.5730 ha         1 NJM       0.149000
     49 H051         2.6590     1.4530    -1.6360 ha         1 NJM       0.149000
     50 H061         1.1980     3.3520    -2.1240 ha         1 NJM       0.140500
     51 H112         4.7570    -0.3280    -1.4920 h1         1 NJM       0.058700
     52 H111         3.4500    -1.2620    -2.1770 h1         1 NJM       0.058700
     53 H122         2.0270    -1.9130     1.2140 h1         1 NJM       0.069700
     54 H121         2.3460    -2.7280    -0.2850 h1         1 NJM       0.069700
     55 H231        -5.6040     1.7890    -0.0860 hc         1 NJM       0.084700
     56 H252        -4.6310     1.5540    -2.2890 hc         1 NJM       0.068700
     57 H251        -3.0900     2.2190    -1.7780 hc         1 NJM       0.068700
     58 H301        -0.1660    -5.0260     1.4910 ha         1 NJM       0.126500
     59 H311        -1.8650    -6.4630     2.5410 ha         1 NJM       0.132000
     60 H321        -4.1350    -6.6250     1.5630 ha         1 NJM       0.132000
     61 H331        -4.6840    -5.3280    -0.4740 ha         1 NJM       0.132000
     62 H341        -2.9850    -3.8950    -1.5240 ha         1 NJM       0.126500
     63 H351         4.2840    -3.3010    -1.0410 hc         1 NJM       0.039700
     64 H363         6.4390    -1.8430    -2.6370 hc         1 NJM       0.039200
     65 H362         6.2840    -3.5870    -2.4430 hc         1 NJM       0.039200
     66 H361         5.0570    -2.6920    -3.3340 hc         1 NJM       0.039200
     67 H371         6.5830    -1.5380    -0.0650 hc         1 NJM       0.039200
     68 H373         5.3560    -2.2780     0.9650 hc         1 NJM       0.039200
     69 H372         6.4910    -3.2930     0.0860 hc         1 NJM       0.039200
     70 H381        -0.3770     5.4850     0.5640 h1         1 NJM       0.049200
     71 H382         0.5520     5.7490    -0.9010 h1         1 NJM       0.049200
     72 H161        -1.8890    -1.3050    -1.2590 hn         1 NJM       0.324500
     73 H141         1.0710    -1.7810    -2.2520 ho         1 NJM       0.400000
     74 H391        -1.8530     4.3380    -0.6520 ho         1 NJM       0.432000
     75 C38         -0.0620     5.0140    -0.3740 c3         1 NJM       0.179700
     76 O08          4.9210     0.8600     0.5280 o          1 NJM      -0.612300
     77 O09          3.3440    -0.0720     2.2420 o          1 NJM      -0.612300
@<TRIPOS>BOND
     1     1     2 1   
     2     1    16 1   
     3     1    30 1   
     4     1    37 1   
     5     2     8 1   
     6     2    29 1   
     7     2    38 1   
     8     3    29 1   
     9     3    31 2   
    10     3    32 1   
    11     4     5 1   
    12     4    17 1   
    13     4    32 1   
    14     4    39 1   
    15     5    33 1   
    16     5    40 1   
    17     5    41 1   
    18     6    17 1   
    19     6    33 1   
    20     6    34 1   
    21     6    42 1   
    22     7    18 1   
    23     7    34 1   
    24     7    43 1   
    25     7    44 1   
    26     8    19 1   
    27     8    45 1   
    28     8    46 1   
    29     9    10 ar  
    30     9    14 ar  
    31     9    75 1   
    32    10    11 ar  
    33    10    47 1   
    34    11    12 ar  
    35    11    48 1   
    36    12    13 ar  
    37    12    36 1   
    38    13    14 ar  
    39    13    49 1   
    40    14    50 1   
    41    15    25 1   
    42    15    28 1   
    43    15    51 1   
    44    15    52 1   
    45    16    28 1   
    46    16    53 1   
    47    16    54 1   
    48    17    18 1   
    49    17    55 1   
    50    18    56 1   
    51    18    57 1   
    52    19    20 ar  
    53    19    24 ar  
    54    20    21 ar  
    55    20    58 1   
    56    21    22 ar  
    57    21    59 1   
    58    22    23 ar  
    59    22    60 1   
    60    23    24 ar  
    61    23    61 1   
    62    24    62 1   
    63    25    26 1   
    64    25    27 1   
    65    25    63 1   
    66    26    64 1   
    67    26    65 1   
    68    26    66 1   
    69    27    67 1   
    70    27    68 1   
    71    27    69 1   
    72    28    36 1   
    73    29    72 1   
    74    30    73 1   
    75    35    74 1   
    76    35    75 1   
    77    36    76 2   
    78    36    77 2   
    79    70    75 1   
    80    71    75 1   
@<TRIPOS>SUBSTRUCTURE
     1 NJM         1 TEMP              0 ****  ****    0 ROOT
