@<TRIPOS>MOLECULE
NJM
   77    80     1     0     0
SMALL
No Charge or Current Charge


@<TRIPOS>ATOM
      1 C13          1.2700    -1.3510    -0.3810 c3         1 NJM       0.110300
      2 C15         -0.0350    -1.9280     0.2440 c3         1 NJM       0.091700
      3 C17         -2.1730    -0.6110     0.4020 c          1 NJM       0.634100
      4 C20         -3.8710     1.0420     0.1580 c5         1 NJM       0.173300
      5 C21         -3.0900     2.1970     0.8830 c5         1 NJM       0.131600
      6 C24         -4.6600     3.2480    -0.4430 c5         1 NJM       0.383300
      7 C26         -4.4340     3.2960    -2.7950 c5         1 NJM       0.146600
      8 C28         -0.2030    -3.4660     0.1060 c3         1 NJM      -0.039100
      9 C01          0.8450     3.3580     0.5160 ca         1 NJM      -0.072300
     10 C02          0.6730     2.4660     1.5930 ca         1 NJM      -0.119000
     11 C03          1.6230     1.4600     1.8470 ca         1 NJM      -0.015000
     12 C04          2.7660     1.3420     1.0290 ca         1 NJM      -0.287500
     13 C05          2.9450     2.2380    -0.0440 ca         1 NJM      -0.015000
     14 C06          1.9860     3.2340    -0.3000 ca         1 NJM      -0.119000
     15 C11          4.2470    -0.7100    -1.1880 c3         1 NJM       0.235800
     16 C12          2.5760    -1.9300     0.2660 c3         1 NJM       0.188800
     17 C23         -4.6660     1.7980    -0.9640 c5         1 NJM      -0.133700
     18 C25         -3.8240     1.9740    -2.2700 c5         1 NJM      -0.098400
     19 C29         -1.4710    -3.9810     0.7800 ca         1 NJM      -0.083300
     20 C30         -1.5070    -4.1550     2.1780 ca         1 NJM      -0.099500
     21 C31         -2.6770    -4.6190     2.8040 ca         1 NJM      -0.107000
     22 C32         -3.8180    -4.9100     2.0370 ca         1 NJM      -0.105000
     23 C33         -3.7880    -4.7380     0.6430 ca         1 NJM      -0.107000
     24 C34         -2.6180    -4.2750     0.0160 ca         1 NJM      -0.099500
     25 C35          4.6330    -1.8990    -2.1140 c3         1 NJM      -0.076700
     26 C36          4.9780    -1.4020    -3.5370 c3         1 NJM      -0.091100
     27 C37          5.7880    -2.7470    -1.5290 c3         1 NJM      -0.091100
     28 N10          3.8160    -1.0980     0.1800 n3         1 NJM      -0.791500
     29 N16         -1.1910    -1.2240    -0.3200 ns         1 NJM      -0.472900
     30 O14          1.2520    -1.5400    -1.8160 oh         1 NJM      -0.651000
     31 O18         -2.2530    -0.6080     1.6210 o          1 NJM      -0.537000
     32 O19         -2.9370     0.1150    -0.4650 os         1 NJM      -0.450100
     33 O22         -3.3420     3.3910     0.1110 os         1 NJM      -0.502000
     34 O27         -4.7440     4.0830    -1.6160 os         1 NJM      -0.437000
     35 O39         -0.9600     4.1990    -0.8950 oh         1 NJM      -0.669000
     36 S07          4.0180     0.0950     1.3930 sy         1 NJM       1.189600
     37 H131         1.2470    -0.2760    -0.1710 h1         1 NJM       0.093700
     38 H151         0.0030    -1.7030     1.3190 h1         1 NJM       0.098700
     39 H201        -4.5380     0.5040     0.8470 h1         1 NJM       0.073700
     40 H212        -3.4690     2.3440     1.9040 h1         1 NJM       0.069700
     41 H211        -2.0100     2.0170     0.9350 h1         1 NJM       0.069700
     42 H241        -5.4440     3.4650     0.2960 h2         1 NJM       0.088700
     43 H262        -3.7500     3.8510    -3.4510 h1         1 NJM       0.056200
     44 H261        -5.3680     3.1100    -3.3430 h1         1 NJM       0.056200
     45 H281        -0.2090    -3.7400    -0.9560 hc         1 NJM       0.051200
     46 H282         0.6660    -3.9700     0.5440 hc         1 NJM       0.051200
     47 H021        -0.1890     2.5580     2.2490 ha         1 NJM       0.122500
     48 H031         1.4700     0.7880     2.6910 ha         1 NJM       0.131000
     49 H051         3.8300     2.1770    -0.6750 ha         1 NJM       0.131000
     50 H061         2.1360     3.9220    -1.1290 ha         1 NJM       0.122500
     51 H112         5.1320    -0.0630    -1.1430 h1         1 NJM       0.058700
     52 H111         3.4620    -0.1160    -1.6760 h1         1 NJM       0.058700
     53 H122         2.3580    -2.1560     1.3180 h1         1 NJM       0.069700
     54 H121         2.7670    -2.9100    -0.1920 h1         1 NJM       0.069700
     55 H231        -5.6760     1.4090    -1.1330 hc         1 NJM       0.084700
     56 H252        -3.9500     1.1440    -2.9740 hc         1 NJM       0.068700
     57 H251        -2.7480     2.0930    -2.0910 hc         1 NJM       0.068700
     58 H301        -0.6300    -3.9280     2.7790 ha         1 NJM       0.108500
     59 H311        -2.7000    -4.7500     3.8840 ha         1 NJM       0.114000
     60 H321        -4.7230    -5.2680     2.5220 ha         1 NJM       0.114000
     61 H331        -4.6710    -4.9620     0.0480 ha         1 NJM       0.114000
     62 H341        -2.6050    -4.1390    -1.0630 ha         1 NJM       0.108500
     63 H351         3.7650    -2.5580    -2.2170 hc         1 NJM       0.039700
     64 H363         5.8530    -0.7390    -3.5190 hc         1 NJM       0.039200
     65 H362         5.2010    -2.2460    -4.2000 hc         1 NJM       0.039200
     66 H361         4.1360    -0.8470    -3.9680 hc         1 NJM       0.039200
     67 H371         6.6900    -2.1380    -1.3930 hc         1 NJM       0.039200
     68 H373         5.5100    -3.1690    -0.5550 hc         1 NJM       0.039200
     69 H372         6.0340    -3.5810    -2.1970 hc         1 NJM       0.039200
     70 H381        -0.8020     4.6080     1.1450 h1         1 NJM       0.049200
     71 H382         0.3880     5.4190     0.1210 h1         1 NJM       0.049200
     72 H161        -1.2220    -1.0760    -1.3200 hn         1 NJM       0.324500
     73 H141         1.3300    -2.5010    -1.9940 ho         1 NJM       0.439000
     74 H391        -1.8460     3.8980    -0.5580 ho         1 NJM       0.471000
     75 C38         -0.1620     4.4780     0.2610 c3         1 NJM       0.202900
     76 O08          5.3500     0.6680     1.1690 o          1 NJM      -0.541500
     77 O09          3.7100    -0.5630     2.6680 o          1 NJM      -0.541500
@<TRIPOS>BOND
     1     1     2 1   
     2     1    16 1   
     3     1    30 1   
     4     1    37 1   
     5     2     8 1   
     6     2    29 1   
     7     2    38 1   
     8     3    29 1   
     9     3    31 2   
    10     3    32 1   
    11     4     5 1   
    12     4    17 1   
    13     4    32 1   
    14     4    39 1   
    15     5    33 1   
    16     5    40 1   
    17     5    41 1   
    18     6    17 1   
    19     6    33 1   
    20     6    34 1   
    21     6    42 1   
    22     7    18 1   
    23     7    34 1   
    24     7    43 1   
    25     7    44 1   
    26     8    19 1   
    27     8    45 1   
    28     8    46 1   
    29     9    10 ar  
    30     9    14 ar  
    31     9    75 1   
    32    10    11 ar  
    33    10    47 1   
    34    11    12 ar  
    35    11    48 1   
    36    12    13 ar  
    37    12    36 1   
    38    13    14 ar  
    39    13    49 1   
    40    14    50 1   
    41    15    25 1   
    42    15    28 1   
    43    15    51 1   
    44    15    52 1   
    45    16    28 1   
    46    16    53 1   
    47    16    54 1   
    48    17    18 1   
    49    17    55 1   
    50    18    56 1   
    51    18    57 1   
    52    19    20 ar  
    53    19    24 ar  
    54    20    21 ar  
    55    20    58 1   
    56    21    22 ar  
    57    21    59 1   
    58    22    23 ar  
    59    22    60 1   
    60    23    24 ar  
    61    23    61 1   
    62    24    62 1   
    63    25    26 1   
    64    25    27 1   
    65    25    63 1   
    66    26    64 1   
    67    26    65 1   
    68    26    66 1   
    69    27    67 1   
    70    27    68 1   
    71    27    69 1   
    72    28    36 1   
    73    29    72 1   
    74    30    73 1   
    75    35    74 1   
    76    35    75 1   
    77    36    76 2   
    78    36    77 2   
    79    70    75 1   
    80    71    75 1   
@<TRIPOS>SUBSTRUCTURE
     1 NJM         1 TEMP              0 ****  ****    0 ROOT
