@<TRIPOS>MOLECULE
NJN
   62    67     1     0     0
SMALL
No Charge or Current Charge


@<TRIPOS>ATOM
      1 CAA         42.7720    65.7930   177.3070 c3         1 NJN      -0.096100
      2 CAB         43.0890    67.2340   176.8790 c3         1 NJN       0.163600
      3 OAC         44.4920    67.4530   177.1040 os         1 NJN      -0.339100
      4 CAD         45.1030    68.6620   176.8180 ca         1 NJN       0.109100
      5 CAE         46.4860    68.8110   177.0630 ca         1 NJN       0.306900
      6 NAF         47.1720    69.9540   176.8160 nb         1 NJN      -0.633000
      7 CAI         44.4000    69.7640   176.2900 ca         1 NJN      -0.178000
      8 CAH         45.1140    70.9500   176.0330 ca         1 NJN      -0.072000
      9 CAG         46.5050    71.0260   176.2980 ca         1 NJN       0.261000
     10 CAJ         47.2270    72.3010   176.0250 cc         1 NJN       0.356500
     11 NBE         48.5750    72.5700   176.1710 na         1 NJN      -0.262800
     12 CBF         49.5940    71.6430   176.3750 ca         1 NJN       0.010800
     13 CBG         49.9370    70.7290   175.3600 ca         1 NJN      -0.089500
     14 CBH         50.9970    69.8250   175.5520 ca         1 NJN      -0.107000
     15 CBI         51.7200    69.8360   176.7570 ca         1 NJN      -0.105000
     16 CBJ         51.3860    70.7520   177.7690 ca         1 NJN      -0.107000
     17 CBK         50.3260    71.6560   177.5770 ca         1 NJN      -0.089500
     18 NAK         46.6580    73.4350   175.6230 nd         1 NJN      -0.361000
     19 NAL         47.6360    74.4030   175.4890 nd         1 NJN      -0.356000
     20 CAM         48.8060    73.8680   175.8070 cc         1 NJN       0.407800
     21 CAN         50.1230    74.5880   175.7420 cy         1 NJN      -0.120000
     22 CAQ         50.2970    75.9660   175.0110 cy         1 NJN      -0.091400
     23 CAO         51.2630    74.1000   174.7800 cy         1 NJN      -0.091400
     24 CAP         51.8010    75.5670   174.8330 cy         1 NJN       0.105700
     25 NAR         52.7360    75.9020   175.8740 ns         1 NJN      -0.491900
     26 CAS         53.3620    77.1150   176.0210 c          1 NJN       0.606700
     27 OAT         53.1650    78.0140   175.2110 o          1 NJN      -0.615100
     28 CAU         54.2970    77.3020   177.2080 ca         1 NJN      -0.091600
     29 CAV         54.5540    76.3160   178.2110 ca         1 NJN       0.253000
     30 NAW         53.9590    75.0880   178.1810 nb         1 NJN      -0.698000
     31 CAX         54.2300    74.1870   179.1520 ca         1 NJN       0.371900
     32 CAY         55.1080    74.4570   180.2050 ca         1 NJN      -0.168000
     33 CAZ         55.7330    75.7110   180.2620 ca         1 NJN      -0.031000
     34 CBA         55.4690    76.6700   179.2650 ca         1 NJN       0.215000
     35 NBB         56.0880    77.8730   179.3480 nb         1 NJN      -0.641000
     36 CBC         55.8320    78.7900   178.3940 ca         1 NJN       0.345900
     37 CBD         54.9600    78.5480   177.3280 ca         1 NJN      -0.102000
     38 HAB         41.7080    65.5780   177.1540 hc         1 NJN       0.050033
     39 HAC         43.3560    65.0770   176.7170 hc         1 NJN       0.050033
     40 HAA         43.0030    65.6460   178.3690 hc         1 NJN       0.050033
     41 HAE         42.4860    67.9330   177.4730 h1         1 NJN       0.037700
     42 HAD         42.8400    67.3640   175.8180 h1         1 NJN       0.037700
     43 HAF         47.0630    67.9830   177.4720 h4         1 NJN       0.034100
     44 HAI         43.3350    69.7220   176.0790 ha         1 NJN       0.127000
     45 HAH         44.5870    71.8100   175.6260 ha         1 NJN       0.146000
     46 HBG         49.3850    70.7220   174.4220 ha         1 NJN       0.129000
     47 HBH         51.2580    69.1190   174.7670 ha         1 NJN       0.118000
     48 HBI         52.5410    69.1380   176.9050 ha         1 NJN       0.115000
     49 HBJ         51.9480    70.7640   178.7000 ha         1 NJN       0.118000
     50 HBK         50.0740    72.3660   178.3620 ha         1 NJN       0.129000
     51 HAN         50.4380    74.6270   176.7920 hc         1 NJN       0.073700
     52 HAS         50.1060    76.8590   175.6170 hc         1 NJN       0.070450
     53 HAR         49.7390    76.0610   174.0710 hc         1 NJN       0.070450
     54 HAP         50.9170    73.7770   173.7910 hc         1 NJN       0.070450
     55 HAO         51.9290    73.3270   175.1800 hc         1 NJN       0.070450
     56 HAQ         52.2280    75.8990   173.8790 h1         1 NJN       0.085700
     57 HBL         52.9610    75.2240   176.5970 hn         1 NJN       0.358500
     58 HAX         53.7270    73.2230   179.0770 h4         1 NJN       0.023100
     59 HAY         55.2970    73.7040   180.9640 ha         1 NJN       0.131000
     60 HAZ         56.4190    75.9440   181.0720 ha         1 NJN       0.141000
     61 HBC         56.3440    79.7470   178.4880 h4         1 NJN       0.029100
     62 HBD         54.8060    79.3380   176.5990 ha         1 NJN       0.156000
@<TRIPOS>BOND
     1     1     2 1   
     2     1    38 1   
     3     1    39 1   
     4     1    40 1   
     5     2     3 1   
     6     2    41 1   
     7     2    42 1   
     8     3     4 1   
     9     4     5 ar  
    10     4     7 ar  
    11     5     6 ar  
    12     5    43 1   
    13     6     9 ar  
    14     7     8 ar  
    15     7    44 1   
    16     8     9 ar  
    17     8    45 1   
    18     9    10 1   
    19    10    11 1   
    20    10    18 2   
    21    11    12 1   
    22    11    20 1   
    23    12    13 ar  
    24    12    17 ar  
    25    13    14 ar  
    26    13    46 1   
    27    14    15 ar  
    28    14    47 1   
    29    15    16 ar  
    30    15    48 1   
    31    16    17 ar  
    32    16    49 1   
    33    17    50 1   
    34    18    19 1   
    35    19    20 2   
    36    20    21 1   
    37    21    22 1   
    38    21    23 1   
    39    21    51 1   
    40    22    24 1   
    41    22    52 1   
    42    22    53 1   
    43    23    24 1   
    44    23    54 1   
    45    23    55 1   
    46    24    25 1   
    47    24    56 1   
    48    25    26 1   
    49    25    57 1   
    50    26    27 2   
    51    26    28 1   
    52    28    29 ar  
    53    28    37 ar  
    54    29    30 ar  
    55    29    34 ar  
    56    30    31 ar  
    57    31    32 ar  
    58    31    58 1   
    59    32    33 ar  
    60    32    59 1   
    61    33    34 ar  
    62    33    60 1   
    63    34    35 ar  
    64    35    36 ar  
    65    36    37 ar  
    66    36    61 1   
    67    37    62 1   
@<TRIPOS>SUBSTRUCTURE
     1 NJN         1 TEMP              0 ****  ****    0 ROOT
