@<TRIPOS>MOLECULE
NJN
   62    67     1     0     0
SMALL
abcg2


@<TRIPOS>ATOM
      1 CAA         42.9700    65.8310   176.9390 c3         1 NJN      -0.096100
      2 CAB         43.2630    67.2950   176.7180 c3         1 NJN       0.163600
      3 OAC         44.6750    67.4460   176.5860 os         1 NJN      -0.339100
      4 CAD         45.1770    68.6690   176.3940 ca         1 NJN       0.109100
      5 CAE         46.5710    68.7670   176.2820 ca         1 NJN       0.306900
      6 NAF         47.2020    69.9060   176.0930 nb         1 NJN      -0.633000
      7 CAI         44.4360    69.8420   176.2970 ca         1 NJN      -0.178000
      8 CAH         45.1080    71.0370   176.1000 ca         1 NJN      -0.072000
      9 CAG         46.4940    71.0300   176.0040 ca         1 NJN       0.261000
     10 CAJ         47.2230    72.2750   175.7720 cc         1 NJN       0.356500
     11 NBE         48.5260    72.5050   176.0950 na         1 NJN      -0.262800
     12 CBF         49.4370    71.6830   176.8150 ca         1 NJN       0.010800
     13 CBG         50.4610    71.0390   176.1400 ca         1 NJN      -0.089500
     14 CBH         51.3710    70.2760   176.8570 ca         1 NJN      -0.107000
     15 CBI         51.2460    70.1520   178.2350 ca         1 NJN      -0.105000
     16 CBJ         50.2110    70.7980   178.8990 ca         1 NJN      -0.107000
     17 CBK         49.3040    71.5730   178.1910 ca         1 NJN      -0.089500
     18 NAK         46.7220    73.3390   175.2090 nd         1 NJN      -0.361000
     19 NAL         47.6900    74.2840   175.1610 nd         1 NJN      -0.356000
     20 CAM         48.7690    73.7850   175.6930 cc         1 NJN       0.407800
     21 CAN         50.0750    74.4590   175.8500 cy         1 NJN      -0.120000
     22 CAQ         50.1790    75.9340   175.4240 cy         1 NJN      -0.091400
     23 CAO         51.1990    74.1400   174.8330 cy         1 NJN      -0.091400
     24 CAP         51.5760    75.6300   174.8390 cy         1 NJN       0.105700
     25 NAR         52.6580    75.8780   175.7610 ns         1 NJN      -0.491900
     26 CAS         53.1270    77.1040   175.9900 c          1 NJN       0.606700
     27 OAT         52.7140    78.1010   175.4100 o          1 NJN      -0.615100
     28 CAU         54.2390    77.2320   177.0050 ca         1 NJN      -0.091600
     29 CAV         54.7340    76.1880   177.8420 ca         1 NJN       0.253000
     30 NAW         54.2220    74.9390   177.7720 nb         1 NJN      -0.698000
     31 CAX         54.6900    74.0080   178.5610 ca         1 NJN       0.371900
     32 CAY         55.7160    74.2270   179.4990 ca         1 NJN      -0.168000
     33 CAZ         56.2580    75.4760   179.5900 ca         1 NJN      -0.031000
     34 CBA         55.7740    76.5040   178.7510 ca         1 NJN       0.215000
     35 NBB         56.3210    77.7340   178.8520 nb         1 NJN      -0.641000
     36 CBC         55.8560    78.6690   178.0690 ca         1 NJN       0.345900
     37 CBD         54.8190    78.4660   177.1380 ca         1 NJN      -0.102000
     38 HAB         41.8950    65.6930   177.0530 hc         1 NJN       0.050033
     39 HAC         43.2990    65.2250   176.0940 hc         1 NJN       0.050033
     40 HAA         43.4540    65.4610   177.8430 hc         1 NJN       0.050033
     41 HAE         42.9020    67.8910   177.5620 h1         1 NJN       0.037700
     42 HAD         42.7630    67.6570   175.8140 h1         1 NJN       0.037700
     43 HAF         47.1760    67.8690   176.3510 h4         1 NJN       0.034100
     44 HAI         43.3580    69.8480   176.3750 ha         1 NJN       0.127000
     45 HAH         44.5560    71.9640   176.0290 ha         1 NJN       0.146000
     46 HBG         50.5440    71.1300   175.0650 ha         1 NJN       0.129000
     47 HBH         52.1760    69.7740   176.3350 ha         1 NJN       0.118000
     48 HBI         51.9560    69.5530   178.7910 ha         1 NJN       0.115000
     49 HBJ         50.1130    70.7040   179.9730 ha         1 NJN       0.118000
     50 HBK         48.5000    72.0890   178.7010 ha         1 NJN       0.129000
     51 HAN         50.4380    74.3160   176.8720 hc         1 NJN       0.073700
     52 HAS         50.1120    76.6890   176.2070 hc         1 NJN       0.070450
     53 HAR         49.4690    76.1750   174.6330 hc         1 NJN       0.070450
     54 HAP         50.7960    73.8400   173.8660 hc         1 NJN       0.070450
     55 HAO         51.9660    73.4240   175.1320 hc         1 NJN       0.070450
     56 HAQ         51.8010    76.0770   173.8700 h1         1 NJN       0.085700
     57 HBL         53.0300    75.1250   176.3370 hn         1 NJN       0.358500
     58 HAX         54.2460    73.0230   178.4650 h4         1 NJN       0.023100
     59 HAY         56.0560    73.4140   180.1250 ha         1 NJN       0.131000
     60 HAZ         57.0520    75.7030   180.2910 ha         1 NJN       0.141000
     61 HBC         56.3060    79.6530   178.1550 h4         1 NJN       0.029100
     62 HBD         54.4900    79.2960   176.5280 ha         1 NJN       0.156000
@<TRIPOS>BOND
     1     1     2 1   
     2     1    38 1   
     3     1    39 1   
     4     1    40 1   
     5     2     3 1   
     6     2    41 1   
     7     2    42 1   
     8     3     4 1   
     9     4     5 ar  
    10     4     7 ar  
    11     5     6 ar  
    12     5    43 1   
    13     6     9 ar  
    14     7     8 ar  
    15     7    44 1   
    16     8     9 ar  
    17     8    45 1   
    18     9    10 1   
    19    10    11 1   
    20    10    18 2   
    21    11    12 1   
    22    11    20 1   
    23    12    13 ar  
    24    12    17 ar  
    25    13    14 ar  
    26    13    46 1   
    27    14    15 ar  
    28    14    47 1   
    29    15    16 ar  
    30    15    48 1   
    31    16    17 ar  
    32    16    49 1   
    33    17    50 1   
    34    18    19 1   
    35    19    20 2   
    36    20    21 1   
    37    21    22 1   
    38    21    23 1   
    39    21    51 1   
    40    22    24 1   
    41    22    52 1   
    42    22    53 1   
    43    23    24 1   
    44    23    54 1   
    45    23    55 1   
    46    24    25 1   
    47    24    56 1   
    48    25    26 1   
    49    25    57 1   
    50    26    27 2   
    51    26    28 1   
    52    28    29 ar  
    53    28    37 ar  
    54    29    30 ar  
    55    29    34 ar  
    56    30    31 ar  
    57    31    32 ar  
    58    31    58 1   
    59    32    33 ar  
    60    32    59 1   
    61    33    34 ar  
    62    33    60 1   
    63    34    35 ar  
    64    35    36 ar  
    65    36    37 ar  
    66    36    61 1   
    67    37    62 1   
@<TRIPOS>SUBSTRUCTURE
     1 NJN         1 TEMP              0 ****  ****    0 ROOT
