@<TRIPOS>MOLECULE
NJO
   76    79     1     0     0
SMALL
abcg2


@<TRIPOS>ATOM
      1 C20        -22.7950   -23.5970   -10.9290 ca         1 NJO      -0.114000
      2 C19        -22.4130   -22.4830   -11.6660 ca         1 NJO      -0.113000
      3 C17        -23.8450   -21.0770   -10.3160 ca         1 NJO      -0.090300
      4 C18        -22.9340   -21.2350   -11.3600 ca         1 NJO      -0.101000
      5 C16        -24.3630   -19.7060    -9.9730 c3         1 NJO      -0.007100
      6 C15        -23.2960   -18.8980    -9.2370 c3         1 NJO      -0.011700
      7 C10        -24.7810    -9.4230   -11.1880 ca         1 NJO       0.340900
      8 C12        -22.0740   -16.0100   -10.5870 c3         1 NJO       0.131700
      9 C21        -23.6970   -23.4510    -9.8850 ca         1 NJO      -0.113000
     10 C22        -24.2170   -22.1990    -9.5800 ca         1 NJO      -0.101000
     11 C03        -23.6880   -12.6430   -11.3700 c3         1 NJO      -0.157400
     12 C04        -24.4170   -11.7670   -10.3470 c3         1 NJO      -0.019100
     13 C05        -25.2560   -10.7200   -11.0190 ca         1 NJO      -0.137300
     14 C06        -26.5190   -11.0020   -11.5280 ca         1 NJO      -0.073000
     15 C07        -27.2320   -10.0010   -12.1680 ca         1 NJO      -0.163000
     16 C08        -26.6550    -8.7440   -12.2800 ca         1 NJO       0.334900
     17 C23        -22.9130   -19.5690    -7.9290 c          1 NJO       0.608100
     18 C27        -19.6020   -20.6210    -6.5940 c3         1 NJO      -0.045100
     19 C28        -19.1600   -21.6690    -7.5830 ca         1 NJO      -0.132300
     20 C29        -17.7940   -21.9030    -7.7400 ca         1 NJO       0.326900
     21 C31        -18.1110   -23.5250    -9.2980 ca         1 NJO       0.324900
     22 C32        -19.4860   -23.3830    -9.2260 ca         1 NJO      -0.161000
     23 C33        -20.0180   -22.4410    -8.3560 ca         1 NJO      -0.066000
     24 C34        -20.5680   -15.8620   -10.8660 c3         1 NJO      -0.048100
     25 C35        -19.8690   -17.1870   -10.7250 ca         1 NJO      -0.088300
     26 C36        -18.9920   -17.4380    -9.6730 ca         1 NJO      -0.116000
     27 C37        -18.3760   -18.6760    -9.5370 ca         1 NJO      -0.112000
     28 C38        -18.6360   -19.6890   -10.4510 ca         1 NJO      -0.106000
     29 C39        -19.5100   -19.4520   -11.5040 ca         1 NJO      -0.112000
     30 C40        -20.1170   -18.2120   -11.6390 ca         1 NJO      -0.116000
     31 N09        -25.4520    -8.4550   -11.7990 nb         1 NJO      -0.663000
     32 N11        -22.8710   -14.9050   -11.0880 ns         1 NJO      -0.503900
     33 N25        -21.6000   -19.7580    -7.7320 ns         1 NJO      -0.508900
     34 N30        -17.2730   -22.7970    -8.5660 nb         1 NJO      -0.663000
     35 O01        -21.9380   -13.2540    -9.8600 o          1 NJO      -0.607100
     36 O24        -23.7590   -19.9100    -7.1170 o          1 NJO      -0.592100
     37 S14        -23.9020   -17.2140    -8.8620 ss         1 NJO      -0.396000
     38 H1         -22.3920   -24.5730   -11.1690 ha         1 NJO       0.111000
     39 H2         -21.7100   -22.5870   -12.4830 ha         1 NJO       0.113000
     40 H3         -22.6350   -20.3710   -11.9440 ha         1 NJO       0.117000
     41 H4         -24.6300   -19.1650   -10.8830 hc         1 NJO       0.068200
     42 H5         -25.2670   -19.7760    -9.3650 hc         1 NJO       0.068200
     43 H6         -22.4270   -18.7950    -9.8940 h1         1 NJO       0.073700
     44 H7         -21.5470   -16.8720    -8.6600 h1         1 NJO       0.090700
     45 H8         -22.4310   -15.3720    -8.5390 h1         1 NJO       0.090700
     46 H10        -22.4120   -16.8690   -11.1700 h1         1 NJO       0.048700
     47 H11        -24.0010   -24.3140    -9.3060 ha         1 NJO       0.113000
     48 H12        -24.9230   -22.0930    -8.7660 ha         1 NJO       0.117000
     49 H13        -24.4120   -13.1510   -12.0100 hc         1 NJO       0.060700
     50 H14        -23.6870   -11.2870    -9.6930 hc         1 NJO       0.064700
     51 H15        -26.9410   -11.9940   -11.4190 ha         1 NJO       0.117000
     52 H16        -28.2180   -10.1870   -12.5720 ha         1 NJO       0.123000
     53 H17        -27.1880    -7.9400   -12.7760 h4         1 NJO       0.019100
     54 H19        -19.2700   -20.9200    -5.5960 hc         1 NJO       0.058200
     55 H20        -19.0760   -19.6850    -6.8080 hc         1 NJO       0.058200
     56 H21        -17.0860   -21.3190    -7.1570 h4         1 NJO       0.015100
     57 H22        -17.6670   -24.2510    -9.9700 h4         1 NJO       0.019100
     58 H23        -20.1310   -23.9940    -9.8420 ha         1 NJO       0.126000
     59 H24        -21.0930   -22.3230    -8.2990 ha         1 NJO       0.133000
     60 H25        -20.1230   -15.1260   -10.1970 hc         1 NJO       0.070700
     61 H26        -20.4450   -15.4880   -11.8860 hc         1 NJO       0.070700
     62 H27        -18.7870   -16.6540    -8.9520 ha         1 NJO       0.114000
     63 H28        -17.6910   -18.8490    -8.7160 ha         1 NJO       0.116000
     64 H29        -18.1580   -20.6540   -10.3480 ha         1 NJO       0.124000
     65 H30        -19.7180   -20.2350   -12.2230 ha         1 NJO       0.116000
     66 H31        -20.7930   -18.0360   -12.4690 ha         1 NJO       0.114000
     67 H32        -23.5770   -15.1260   -11.7710 hn         1 NJO       0.319500
     68 H33        -23.0840   -12.0080   -12.0240 hc         1 NJO       0.060700
     69 H34        -25.0480   -12.3960    -9.7140 hc         1 NJO       0.064700
     70 H36        -20.9400   -19.4240    -8.4200 hn         1 NJO       0.322500
     71 C13        -22.3560   -16.2960    -9.1100 c3         1 NJO       0.031600
     72 C02        -22.7500   -13.6250   -10.6960 c          1 NJO       0.599100
     73 C26        -21.0910   -20.3520    -6.5120 c3         1 NJO       0.107000
     74 H9         -23.8010    -9.1580   -10.8000 h4         1 NJO       0.021100
     75 H18        -21.2770   -19.6860    -5.6660 h1         1 NJO       0.055700
     76 H35        -21.6320   -21.2780    -6.3030 h1         1 NJO       0.055700
@<TRIPOS>BOND
     1     1     2 ar  
     2     1     9 ar  
     3     1    38 1   
     4     2     4 ar  
     5     2    39 1   
     6     3     4 ar  
     7     3     5 1   
     8     3    10 ar  
     9     4    40 1   
    10     5     6 1   
    11     5    41 1   
    12     5    42 1   
    13     6    17 1   
    14     6    37 1   
    15     6    43 1   
    16     7    13 ar  
    17     7    31 ar  
    18     7    74 1   
    19     8    24 1   
    20     8    32 1   
    21     8    46 1   
    22     8    71 1   
    23     9    10 ar  
    24     9    47 1   
    25    10    48 1   
    26    11    12 1   
    27    11    49 1   
    28    11    68 1   
    29    11    72 1   
    30    12    13 1   
    31    12    50 1   
    32    12    69 1   
    33    13    14 ar  
    34    14    15 ar  
    35    14    51 1   
    36    15    16 ar  
    37    15    52 1   
    38    16    31 ar  
    39    16    53 1   
    40    17    33 1   
    41    17    36 2   
    42    18    19 1   
    43    18    54 1   
    44    18    55 1   
    45    18    73 1   
    46    19    20 ar  
    47    19    23 ar  
    48    20    34 ar  
    49    20    56 1   
    50    21    22 ar  
    51    21    34 ar  
    52    21    57 1   
    53    22    23 ar  
    54    22    58 1   
    55    23    59 1   
    56    24    25 1   
    57    24    60 1   
    58    24    61 1   
    59    25    26 ar  
    60    25    30 ar  
    61    26    27 ar  
    62    26    62 1   
    63    27    28 ar  
    64    27    63 1   
    65    28    29 ar  
    66    28    64 1   
    67    29    30 ar  
    68    29    65 1   
    69    30    66 1   
    70    32    67 1   
    71    32    72 1   
    72    33    70 1   
    73    33    73 1   
    74    35    72 2   
    75    37    71 1   
    76    44    71 1   
    77    45    71 1   
    78    73    75 1   
    79    73    76 1   
@<TRIPOS>SUBSTRUCTURE
     1 NJO         1 TEMP              0 ****  ****    0 ROOT
