@<TRIPOS>MOLECULE
NJO
   76    79     1     0     0
SMALL
No Charge or Current Charge


@<TRIPOS>ATOM
      1 C20        -22.8030   -23.5170   -10.9690 ca         1 NJO      -0.114000
      2 C19        -22.4550   -22.3810   -11.7190 ca         1 NJO      -0.113000
      3 C17        -23.8110   -20.9860   -10.2450 ca         1 NJO      -0.090300
      4 C18        -22.9580   -21.1200   -11.3580 ca         1 NJO      -0.101000
      5 C16        -24.3500   -19.6160    -9.8550 c3         1 NJO      -0.007100
      6 C15        -23.2980   -18.7820    -9.0950 c3         1 NJO      -0.011700
      7 C10        -25.1700    -9.3980   -10.9030 ca         1 NJO       0.340900
      8 C12        -22.0240   -15.8760   -10.5540 c3         1 NJO       0.131700
      9 C21        -23.6460   -23.3890    -9.8530 ca         1 NJO      -0.113000
     10 C22        -24.1490   -22.1280    -9.4910 ca         1 NJO      -0.101000
     11 C03        -23.3940   -12.3520   -11.3800 c3         1 NJO      -0.157400
     12 C04        -24.4760   -11.8070   -10.4220 c3         1 NJO      -0.019100
     13 C05        -25.3750   -10.7800   -11.0990 ca         1 NJO      -0.137300
     14 C06        -26.4280   -11.1910   -11.9380 ca         1 NJO      -0.073000
     15 C07        -27.2240   -10.2030   -12.5390 ca         1 NJO      -0.163000
     16 C08        -26.9470    -8.8490   -12.2860 ca         1 NJO       0.334900
     17 C23        -22.9010   -19.4430    -7.7540 c          1 NJO       0.608100
     18 C27        -19.5110   -20.7490    -6.5570 c3         1 NJO      -0.045100
     19 C28        -19.1110   -21.7980    -7.6020 ca         1 NJO      -0.132300
     20 C29        -17.7370   -22.0670    -7.7930 ca         1 NJO       0.326900
     21 C31        -18.1670   -23.6760    -9.4000 ca         1 NJO       0.324900
     22 C32        -19.5520   -23.4830    -9.2800 ca         1 NJO      -0.161000
     23 C33        -20.0420   -22.5340    -8.3680 ca         1 NJO      -0.066000
     24 C34        -20.5110   -15.8650   -10.8770 c3         1 NJO      -0.048100
     25 C35        -19.8910   -17.2510   -10.7330 ca         1 NJO      -0.088300
     26 C36        -18.9780   -17.5260    -9.6960 ca         1 NJO      -0.116000
     27 C37        -18.4150   -18.8080    -9.5690 ca         1 NJO      -0.112000
     28 C38        -18.7670   -19.8230   -10.4730 ca         1 NJO      -0.106000
     29 C39        -19.6800   -19.5580   -11.5050 ca         1 NJO      -0.112000
     30 C40        -20.2370   -18.2760   -11.6370 ca         1 NJO      -0.116000
     31 N09        -25.9370    -8.4430   -11.4810 nb         1 NJO      -0.663000
     32 N11        -22.7230   -14.6900   -11.0700 ns         1 NJO      -0.503900
     33 N25        -21.5730   -19.7920    -7.6290 ns         1 NJO      -0.508900
     34 N30        -17.2650   -22.9830    -8.6710 nb         1 NJO      -0.663000
     35 O01        -21.6520   -13.0670    -9.8690 o          1 NJO      -0.607100
     36 O24        -23.7020   -19.6430    -6.8480 o          1 NJO      -0.592100
     37 S14        -23.9130   -17.0390    -8.8470 ss         1 NJO      -0.396000
     38 H1         -22.4180   -24.4950   -11.2520 ha         1 NJO       0.111000
     39 H2         -21.7990   -22.4790   -12.5810 ha         1 NJO       0.113000
     40 H3         -22.6880   -20.2450   -11.9470 ha         1 NJO       0.117000
     41 H4         -24.6510   -19.0690   -10.7570 hc         1 NJO       0.068200
     42 H5         -25.2540   -19.7110    -9.2420 hc         1 NJO       0.068200
     43 H6         -22.3980   -18.7360    -9.7210 h1         1 NJO       0.073700
     44 H7         -21.5160   -16.7200    -8.6000 h1         1 NJO       0.090700
     45 H8         -22.3650   -15.1700    -8.5100 h1         1 NJO       0.090700
     46 H10        -22.4430   -16.7270   -11.1070 h1         1 NJO       0.048700
     47 H11        -23.9120   -24.2680    -9.2690 ha         1 NJO       0.113000
     48 H12        -24.8000   -22.0380    -8.6250 ha         1 NJO       0.117000
     49 H13        -23.8910   -12.8040   -12.2460 hc         1 NJO       0.060700
     50 H14        -23.9920   -11.3660    -9.5410 hc         1 NJO       0.064700
     51 H15        -26.6230   -12.2460   -12.1190 ha         1 NJO       0.117000
     52 H16        -28.0470   -10.4750   -13.1930 ha         1 NJO       0.123000
     53 H17        -27.5510    -8.0640   -12.7400 h4         1 NJO       0.019100
     54 H19        -19.1650   -21.0880    -5.5730 hc         1 NJO       0.058200
     55 H20        -18.9750   -19.8120    -6.7510 hc         1 NJO       0.058200
     56 H21        -16.9850   -21.5270    -7.2180 h4         1 NJO       0.015100
     57 H22        -17.7670   -24.4080   -10.1010 h4         1 NJO       0.019100
     58 H23        -20.2330   -24.0720    -9.8870 ha         1 NJO       0.126000
     59 H24        -21.1150   -22.3910    -8.2690 ha         1 NJO       0.133000
     60 H25        -19.9990   -15.1380   -10.2350 hc         1 NJO       0.070700
     61 H26        -20.3710   -15.5150   -11.9070 hc         1 NJO       0.070700
     62 H27        -18.6990   -16.7460    -8.9900 ha         1 NJO       0.114000
     63 H28        -17.7020   -19.0110    -8.7740 ha         1 NJO       0.116000
     64 H29        -18.3260   -20.8120   -10.3820 ha         1 NJO       0.124000
     65 H30        -19.9490   -20.3440   -12.2070 ha         1 NJO       0.116000
     66 H31        -20.9380   -18.0780   -12.4450 ha         1 NJO       0.114000
     67 H32        -23.4570   -14.8360   -11.7530 hn         1 NJO       0.319500
     68 H33        -22.7680   -11.5130   -11.7080 hc         1 NJO       0.060700
     69 H34        -25.0810   -12.6430   -10.0480 hc         1 NJO       0.064700
     70 H36        -20.9620   -19.6080    -8.4160 hn         1 NJO       0.322500
     71 C13        -22.3170   -16.1230    -9.0510 c3         1 NJO       0.031600
     72 C02        -22.5050   -13.3850   -10.6840 c          1 NJO       0.599100
     73 C26        -21.0150   -20.4240    -6.4310 c3         1 NJO       0.107000
     74 H9         -24.3630    -9.0420   -10.2630 h4         1 NJO       0.021100
     75 H18        -21.1590   -19.7400    -5.5840 h1         1 NJO       0.055700
     76 H35        -21.5740   -21.3440    -6.2140 h1         1 NJO       0.055700
@<TRIPOS>BOND
     1     1     2 ar  
     2     1     9 ar  
     3     1    38 1   
     4     2     4 ar  
     5     2    39 1   
     6     3     4 ar  
     7     3     5 1   
     8     3    10 ar  
     9     4    40 1   
    10     5     6 1   
    11     5    41 1   
    12     5    42 1   
    13     6    17 1   
    14     6    37 1   
    15     6    43 1   
    16     7    13 ar  
    17     7    31 ar  
    18     7    74 1   
    19     8    24 1   
    20     8    32 1   
    21     8    46 1   
    22     8    71 1   
    23     9    10 ar  
    24     9    47 1   
    25    10    48 1   
    26    11    12 1   
    27    11    49 1   
    28    11    68 1   
    29    11    72 1   
    30    12    13 1   
    31    12    50 1   
    32    12    69 1   
    33    13    14 ar  
    34    14    15 ar  
    35    14    51 1   
    36    15    16 ar  
    37    15    52 1   
    38    16    31 ar  
    39    16    53 1   
    40    17    33 1   
    41    17    36 2   
    42    18    19 1   
    43    18    54 1   
    44    18    55 1   
    45    18    73 1   
    46    19    20 ar  
    47    19    23 ar  
    48    20    34 ar  
    49    20    56 1   
    50    21    22 ar  
    51    21    34 ar  
    52    21    57 1   
    53    22    23 ar  
    54    22    58 1   
    55    23    59 1   
    56    24    25 1   
    57    24    60 1   
    58    24    61 1   
    59    25    26 ar  
    60    25    30 ar  
    61    26    27 ar  
    62    26    62 1   
    63    27    28 ar  
    64    27    63 1   
    65    28    29 ar  
    66    28    64 1   
    67    29    30 ar  
    68    29    65 1   
    69    30    66 1   
    70    32    67 1   
    71    32    72 1   
    72    33    70 1   
    73    33    73 1   
    74    35    72 2   
    75    37    71 1   
    76    44    71 1   
    77    45    71 1   
    78    73    75 1   
    79    73    76 1   
@<TRIPOS>SUBSTRUCTURE
     1 NJO         1 TEMP              0 ****  ****    0 ROOT
