@<TRIPOS>MOLECULE
NJQ
   59    62     1     0     0
SMALL
No Charge or Current Charge


@<TRIPOS>ATOM
      1 C1          -3.4960     1.2730     1.7380 c3         1 NJQ       0.018200
      2 C2          -3.7410    -0.1430     1.1970 ca         1 NJQ      -0.144300
      3 C3          -5.0470    -0.6750     1.2500 ca         1 NJQ      -0.072000
      4 C4          -5.3330    -1.9730     0.7690 ca         1 NJQ      -0.134600
      5 C5          -4.2740    -2.7370     0.2340 ca         1 NJQ      -0.074000
      6 C6          -2.9710    -2.2170     0.1750 ca         1 NJQ      -0.124000
      7 C7          -2.6910    -0.9170     0.6460 ca         1 NJQ      -0.076000
      8 N8          -1.3810    -0.3640     0.5980 ns         1 NJQ      -0.140000
      9 C9          -6.7440    -2.5350     0.8320 c          1 NJQ       0.713600
     10 O10         -7.6320    -1.8430     1.3110 o          1 NJQ      -0.719000
     11 O11         -6.9450    -3.6620     0.4010 o          1 NJQ      -0.719000
     12 C15         -2.9030     2.2290     0.7020 ca         1 NJQ      -0.070300
     13 C18         -1.7630     3.9560    -1.2160 ca         1 NJQ      -0.115000
     14 C19         -1.2740     3.9470     0.1010 ca         1 NJQ      -0.111000
     15 C20         -1.8450     3.0890     1.0570 ca         1 NJQ      -0.108000
     16 C21         -3.3950     2.2510    -0.6190 ca         1 NJQ      -0.108000
     17 C22         -2.8260     3.1110    -1.5750 ca         1 NJQ      -0.111000
     18 C28         -0.2660    -0.6600    -0.1850 c          1 NJQ       0.502600
     19 O29         -0.2820    -1.5320    -1.0550 o          1 NJQ      -0.546100
     20 C30          0.9780     0.2000     0.0960 ca         1 NJQ       0.312500
     21 C32          1.0300     1.0810     1.2070 ca         1 NJQ      -0.148000
     22 C33          2.1730     1.8660     1.4270 ca         1 NJQ      -0.084000
     23 C34          3.2430     1.7480     0.5320 ca         1 NJQ      -0.161000
     24 C35          3.1400     0.8520    -0.5450 ca         1 NJQ       0.353300
     25 N36          2.0390     0.0990    -0.7600 nb         1 NJQ      -0.624000
     26 C37          4.2870     0.6850    -1.5350 c3         1 NJQ      -0.124700
     27 C41          5.5660     0.0310    -0.9300 c6         1 NJQ      -0.053700
     28 C44          6.7240     0.0060    -1.9660 c6         1 NJQ      -0.072900
     29 C45          5.2910    -1.4020    -0.3900 c6         1 NJQ      -0.072900
     30 C47          7.7210    -2.0590    -0.8380 c6         1 NJQ      -0.075400
     31 C48          6.5730    -2.0440     0.1990 c6         1 NJQ      -0.072400
     32 C57          8.0050    -0.6350    -1.3750 c6         1 NJQ      -0.072400
     33 H1          -4.4300     1.7050     2.1160 hc         1 NJQ       0.044700
     34 H1A         -2.8360     1.2080     2.6120 hc         1 NJQ       0.044700
     35 H3          -5.8490    -0.0720     1.6700 ha         1 NJQ       0.129000
     36 H5          -4.4560    -3.7430    -0.1370 ha         1 NJQ       0.132000
     37 H6          -2.1850    -2.8480    -0.2270 ha         1 NJQ       0.106000
     38 HN8         -1.2540     0.4190     1.2250 hn         1 NJQ       0.139000
     39 H18         -1.3210     4.6200    -1.9560 ha         1 NJQ       0.100000
     40 H19         -0.4540     4.6030     0.3810 ha         1 NJQ       0.103000
     41 H20         -1.4600     3.0940     2.0740 ha         1 NJQ       0.115500
     42 H21         -4.2140     1.5970    -0.9080 ha         1 NJQ       0.115500
     43 H22         -3.2070     3.1190    -2.5930 ha         1 NJQ       0.103000
     44 H32          0.2040     1.1590     1.9070 ha         1 NJQ       0.129000
     45 H33          2.2270     2.5480     2.2740 ha         1 NJQ       0.113000
     46 H34          4.1440     2.3400     0.6700 ha         1 NJQ       0.115000
     47 H37          3.9530     0.1000    -2.4010 hc         1 NJQ       0.054700
     48 H37A         4.5400     1.6740    -1.9340 hc         1 NJQ       0.054700
     49 H41          5.8760     0.6660    -0.0870 hc         1 NJQ       0.040700
     50 H44          6.4140    -0.5540    -2.8600 hc         1 NJQ       0.045950
     51 H44A         6.9500     1.0270    -2.3030 hc         1 NJQ       0.045950
     52 H45          4.5150    -1.3740     0.3860 hc         1 NJQ       0.045950
     53 H45A         4.9010    -2.0360    -1.1980 hc         1 NJQ       0.045950
     54 H47          8.6310    -2.4730    -0.3810 hc         1 NJQ       0.035200
     55 H47A         7.4590    -2.7240    -1.6720 hc         1 NJQ       0.035200
     56 H48          6.8880    -1.4870     1.0920 hc         1 NJQ       0.034700
     57 H48A         6.3570    -3.0690     0.5310 hc         1 NJQ       0.034700
     58 H57          8.7890    -0.6760    -2.1430 hc         1 NJQ       0.034700
     59 H57A         8.3940    -0.0040    -0.5640 hc         1 NJQ       0.034700
@<TRIPOS>BOND
     1     1     2 1   
     2     1    12 1   
     3     1    33 1   
     4     1    34 1   
     5     2     3 ar  
     6     2     7 ar  
     7     3     4 ar  
     8     3    35 1   
     9     4     5 ar  
    10     4     9 1   
    11     5     6 ar  
    12     5    36 1   
    13     6     7 ar  
    14     6    37 1   
    15     7     8 1   
    16     8    18 1   
    17     8    38 1   
    18     9    10 1   
    19     9    11 1   
    20    12    15 ar  
    21    12    16 ar  
    22    13    14 ar  
    23    13    17 ar  
    24    13    39 1   
    25    14    15 ar  
    26    14    40 1   
    27    15    41 1   
    28    16    17 ar  
    29    16    42 1   
    30    17    43 1   
    31    18    19 2   
    32    18    20 1   
    33    20    21 ar  
    34    20    25 ar  
    35    21    22 ar  
    36    21    44 1   
    37    22    23 ar  
    38    22    45 1   
    39    23    24 ar  
    40    23    46 1   
    41    24    25 ar  
    42    24    26 1   
    43    26    27 1   
    44    26    47 1   
    45    26    48 1   
    46    27    28 1   
    47    27    29 1   
    48    27    49 1   
    49    28    32 1   
    50    28    50 1   
    51    28    51 1   
    52    29    31 1   
    53    29    52 1   
    54    29    53 1   
    55    30    31 1   
    56    30    32 1   
    57    30    54 1   
    58    30    55 1   
    59    31    56 1   
    60    31    57 1   
    61    32    58 1   
    62    32    59 1   
@<TRIPOS>SUBSTRUCTURE
     1 NJQ         1 TEMP              0 ****  ****    0 ROOT
