@<TRIPOS>MOLECULE
NJQ
   59    62     1     0     0
SMALL
bcc


@<TRIPOS>ATOM
      1 C1          -3.3930     1.5300     0.7640 c3         1 NJQ       0.018200
      2 C2          -3.6140     0.0420     0.8850 ca         1 NJQ      -0.144300
      3 C3          -4.8440    -0.5180     0.5620 ca         1 NJQ      -0.090000
      4 C4          -5.0800    -1.8880     0.6400 ca         1 NJQ      -0.134600
      5 C5          -4.0430    -2.7100     1.0670 ca         1 NJQ      -0.092000
      6 C6          -2.8100    -2.1780     1.4070 ca         1 NJQ      -0.142000
      7 C7          -2.5910    -0.8090     1.3180 ca         1 NJQ       0.016600
      8 N8          -1.3400    -0.2570     1.6540 ns         1 NJQ      -0.466100
      9 C9          -6.4390    -2.4640     0.2670 c          1 NJQ       0.924200
     10 O10         -7.3110    -1.6510    -0.0970 o          1 NJQ      -0.824300
     11 O11         -6.5640    -3.7010     0.3560 o          1 NJQ      -0.824300
     12 C15         -2.2500     1.9060    -0.1500 ca         1 NJQ      -0.070300
     13 C18         -0.1080     2.5750    -1.8230 ca         1 NJQ      -0.133000
     14 C19         -0.1870     3.1080    -0.5450 ca         1 NJQ      -0.129000
     15 C20         -1.2520     2.7750     0.2810 ca         1 NJQ      -0.126000
     16 C21         -2.1660     1.3820    -1.4380 ca         1 NJQ      -0.126000
     17 C22         -1.1030     1.7130    -2.2680 ca         1 NJQ      -0.129000
     18 C28         -0.1870    -0.5940     1.0190 c          1 NJQ       0.569600
     19 O29         -0.0910    -1.5220     0.2430 o          1 NJQ      -0.546100
     20 C30          0.9830     0.2920     1.3360 ca         1 NJQ       0.377800
     21 C32          1.1570     0.8800     2.5810 ca         1 NJQ      -0.231300
     22 C33          2.2750     1.6820     2.7690 ca         1 NJQ      -0.102000
     23 C34          3.1500     1.8670     1.7160 ca         1 NJQ      -0.244300
     24 C35          2.8950     1.2310     0.4990 ca         1 NJQ       0.418600
     25 N36          1.8340     0.4530     0.3320 nb         1 NJQ      -0.624000
     26 C37          3.8360     1.3890    -0.6580 c3         1 NJQ      -0.124700
     27 C41          4.9660     0.3510    -0.6690 c6         1 NJQ      -0.053700
     28 C44          5.9840     0.6920    -1.7580 c6         1 NJQ      -0.072900
     29 C45          4.4480    -1.0740    -0.8640 c6         1 NJQ      -0.072900
     30 C47          6.5990    -1.7410    -1.9940 c6         1 NJQ      -0.075400
     31 C48          5.5850    -2.0890    -0.9100 c6         1 NJQ      -0.072400
     32 C57          7.1240    -0.3200    -1.8130 c6         1 NJQ      -0.072400
     33 H1          -4.3190     1.9850     0.4040 hc         1 NJQ       0.044700
     34 H1A         -3.2160     1.9690     1.7520 hc         1 NJQ       0.044700
     35 H3          -5.6420     0.1320     0.2260 ha         1 NJQ       0.147000
     36 H5          -4.2010    -3.7780     1.1430 ha         1 NJQ       0.150000
     37 H6          -2.0210    -2.8270     1.7650 ha         1 NJQ       0.124000
     38 HN8         -1.3550     0.6320     2.1300 hn         1 NJQ       0.305500
     39 H18          0.7280     2.8200    -2.4660 ha         1 NJQ       0.118000
     40 H19          0.5870     3.7720    -0.1840 ha         1 NJQ       0.121000
     41 H20         -1.3000     3.1840     1.2840 ha         1 NJQ       0.133500
     42 H21         -2.9320     0.7030    -1.7940 ha         1 NJQ       0.133500
     43 H22         -1.0490     1.2920    -3.2640 ha         1 NJQ       0.121000
     44 H32          0.4630     0.7110     3.3930 ha         1 NJQ       0.147000
     45 H33          2.4540     2.1550     3.7260 ha         1 NJQ       0.131000
     46 H34          4.0250     2.4940     1.8270 ha         1 NJQ       0.133000
     47 H37          3.2680     1.3170    -1.5900 hc         1 NJQ       0.054700
     48 H37A         4.2780     2.3890    -0.6270 hc         1 NJQ       0.054700
     49 H41          5.4830     0.4000     0.2990 hc         1 NJQ       0.040700
     50 H44          5.4720     0.7180    -2.7270 hc         1 NJQ       0.045950
     51 H44A         6.3820     1.6970    -1.5910 hc         1 NJQ       0.045950
     52 H45          3.7390    -1.3370    -0.0760 hc         1 NJQ       0.045950
     53 H45A         3.8840    -1.1140    -1.8040 hc         1 NJQ       0.045950
     54 H47          7.4270    -2.4550    -1.9840 hc         1 NJQ       0.035200
     55 H47A         6.1240    -1.8290    -2.9780 hc         1 NJQ       0.035200
     56 H48          6.0910    -2.1110     0.0620 hc         1 NJQ       0.034700
     57 H48A         5.1840    -3.0930    -1.0720 hc         1 NJQ       0.034700
     58 H57          7.8150    -0.0650    -2.6200 hc         1 NJQ       0.034700
     59 H57A         7.7020    -0.2660    -0.8840 hc         1 NJQ       0.034700
@<TRIPOS>BOND
     1     1     2 1   
     2     1    12 1   
     3     1    33 1   
     4     1    34 1   
     5     2     3 ar  
     6     2     7 ar  
     7     3     4 ar  
     8     3    35 1   
     9     4     5 ar  
    10     4     9 1   
    11     5     6 ar  
    12     5    36 1   
    13     6     7 ar  
    14     6    37 1   
    15     7     8 1   
    16     8    18 1   
    17     8    38 1   
    18     9    10 1   
    19     9    11 1   
    20    12    15 ar  
    21    12    16 ar  
    22    13    14 ar  
    23    13    17 ar  
    24    13    39 1   
    25    14    15 ar  
    26    14    40 1   
    27    15    41 1   
    28    16    17 ar  
    29    16    42 1   
    30    17    43 1   
    31    18    19 2   
    32    18    20 1   
    33    20    21 ar  
    34    20    25 ar  
    35    21    22 ar  
    36    21    44 1   
    37    22    23 ar  
    38    22    45 1   
    39    23    24 ar  
    40    23    46 1   
    41    24    25 ar  
    42    24    26 1   
    43    26    27 1   
    44    26    47 1   
    45    26    48 1   
    46    27    28 1   
    47    27    29 1   
    48    27    49 1   
    49    28    32 1   
    50    28    50 1   
    51    28    51 1   
    52    29    31 1   
    53    29    52 1   
    54    29    53 1   
    55    30    31 1   
    56    30    32 1   
    57    30    54 1   
    58    30    55 1   
    59    31    56 1   
    60    31    57 1   
    61    32    58 1   
    62    32    59 1   
@<TRIPOS>SUBSTRUCTURE
     1 NJQ         1 TEMP              0 ****  ****    0 ROOT
