@<TRIPOS>MOLECULE
NJR
   50    51     1     0     0
SMALL
bcc


@<TRIPOS>ATOM
      1 C1         -15.8180   -18.1020    -1.0650 c3         1 NJR      -0.101600
      2 C2         -15.9050   -19.1380     0.0640 c3         1 NJR       0.190200
      3 C3         -15.0140   -18.6500     1.2130 c3         1 NJR      -0.101600
      4 C4         -17.8260   -20.1020     1.3840 ca         1 NJR       0.206600
      5 C5         -19.1870   -19.9740     1.7110 ca         1 NJR      -0.209000
      6 C6         -19.8190   -20.8760     2.5440 ca         1 NJR      -0.075500
      7 C7         -19.1030   -21.9360     3.0820 ca         1 NJR      -0.033600
      8 O1         -14.2420   -20.8370    -0.1380 o          1 NJR      -0.610100
      9 O2         -19.9020   -25.3100    -3.8660 o          1 NJR      -0.569100
     10 C8         -17.7570   -22.0750     2.7960 ca         1 NJR      -0.075500
     11 N1         -17.2860   -19.2220     0.4900 nu         1 NJR      -0.792600
     12 C9         -17.1190   -21.1660     1.9630 ca         1 NJR      -0.209000
     13 C10        -15.3630   -20.4830    -0.4860 c          1 NJR       0.668100
     14 C11        -15.5820   -22.5050    -1.8090 c6         1 NJR       0.100000
     15 CL1        -19.8980   -23.0820     4.1200 cl         1 NJR      -0.122400
     16 N2         -16.0910   -21.2180    -1.3540 n          1 NJR      -0.465800
     17 C12        -16.5190   -23.6280    -1.3860 c6         1 NJR      -0.093400
     18 C13        -17.9370   -23.3990    -1.9020 c6         1 NJR      -0.084700
     19 C14        -18.8650   -24.4900    -1.3730 c3         1 NJR       0.110000
     20 N3         -20.2330   -24.3780    -1.8330 ns         1 NJR      -0.577900
     21 C15        -20.6380   -24.8110    -3.0360 c          1 NJR       0.661100
     22 C16        -22.1400   -24.6770    -3.2440 c3         1 NJR      -0.057000
     23 C17        -18.4130   -22.0050    -1.5130 c6         1 NJR      -0.093400
     24 C18        -17.4050   -20.9350    -1.9160 c6         1 NJR       0.100000
     25 CL2        -22.5490   -24.6440    -4.9720 cl         1 NJR      -0.146400
     26 H1         -16.1260   -17.1240    -0.6920 hc         1 NJR       0.050533
     27 H2         -14.7900   -18.0150    -1.4150 hc         1 NJR       0.050533
     28 H3         -16.4460   -18.3520    -1.9190 hc         1 NJR       0.050533
     29 H4         -14.9870   -19.3440     2.0530 hc         1 NJR       0.050533
     30 H5         -13.9900   -18.4780     0.8880 hc         1 NJR       0.050533
     31 H6         -15.4140   -17.7030     1.5750 hc         1 NJR       0.050533
     32 H7         -19.7620   -19.1590     1.2870 ha         1 NJR       0.140000
     33 H8         -20.8700   -20.7510     2.7680 ha         1 NJR       0.143500
     34 H9         -17.1860   -22.8910     3.2190 ha         1 NJR       0.143500
     35 H10        -17.8650   -18.4330     0.2480 hn         1 NJR       0.429800
     36 H11        -16.0660   -21.3150     1.7750 ha         1 NJR       0.140000
     37 H12        -14.5850   -22.6650    -1.4120 h1         1 NJR       0.056950
     38 H13        -15.5000   -22.4800    -2.9010 h1         1 NJR       0.056950
     39 H14        -16.5260   -23.6930    -0.2920 hc         1 NJR       0.051200
     40 H15        -16.1270   -24.5780    -1.7580 hc         1 NJR       0.051200
     41 H16        -17.9140   -23.4650    -2.9960 hc         1 NJR       0.068700
     42 H17        -18.8890   -24.4470    -0.2820 h1         1 NJR       0.056700
     43 H18        -18.4740   -25.4730    -1.6450 h1         1 NJR       0.056700
     44 H19        -20.8980   -23.9320    -1.2220 hn         1 NJR       0.315500
     45 H20        -22.6430   -25.5350    -2.7960 h1         1 NJR       0.076700
     46 H21        -22.5350   -23.7740    -2.7820 h1         1 NJR       0.076700
     47 H22        -18.5720   -21.9600    -0.4310 hc         1 NJR       0.051200
     48 H23        -19.3700   -21.7760    -1.9880 hc         1 NJR       0.051200
     49 H24        -17.3030   -20.9210    -3.0070 h1         1 NJR       0.056950
     50 H25        -17.7650   -19.9590    -1.6160 h1         1 NJR       0.056950
@<TRIPOS>BOND
     1     1     2 1   
     2     1    26 1   
     3     1    27 1   
     4     1    28 1   
     5     2     3 1   
     6     2    11 1   
     7     2    13 1   
     8     3    29 1   
     9     3    30 1   
    10     3    31 1   
    11     4     5 ar  
    12     4    11 1   
    13     4    12 ar  
    14     5     6 ar  
    15     5    32 1   
    16     6     7 ar  
    17     6    33 1   
    18     7    10 ar  
    19     7    15 1   
    20     8    13 2   
    21     9    21 2   
    22    10    12 ar  
    23    10    34 1   
    24    11    35 1   
    25    12    36 1   
    26    13    16 1   
    27    14    16 1   
    28    14    17 1   
    29    14    37 1   
    30    14    38 1   
    31    16    24 1   
    32    17    18 1   
    33    17    39 1   
    34    17    40 1   
    35    18    19 1   
    36    18    23 1   
    37    18    41 1   
    38    19    20 1   
    39    19    42 1   
    40    19    43 1   
    41    20    21 1   
    42    20    44 1   
    43    21    22 1   
    44    22    25 1   
    45    22    45 1   
    46    22    46 1   
    47    23    24 1   
    48    23    47 1   
    49    23    48 1   
    50    24    49 1   
    51    24    50 1   
@<TRIPOS>SUBSTRUCTURE
     1 NJR         1 TEMP              0 ****  ****    0 ROOT
