@<TRIPOS>MOLECULE
NJR
   50    51     1     0     0
SMALL
No Charge or Current Charge


@<TRIPOS>ATOM
      1 C1         -15.8020   -18.0940    -1.0450 c3         1 NJR      -0.101600
      2 C2         -15.7890   -19.0620     0.1690 c3         1 NJR       0.190200
      3 C3         -14.7530   -18.5260     1.1960 c3         1 NJR      -0.101600
      4 C4         -17.8440   -19.9660     1.4750 ca         1 NJR       0.345000
      5 C5         -19.2440   -19.9480     1.3740 ca         1 NJR      -0.191000
      6 C6         -20.0150   -20.9640     1.9700 ca         1 NJR      -0.057500
      7 C7         -19.3800   -21.9980     2.6770 ca         1 NJR       0.058000
      8 O1         -14.4210   -21.1150     0.1850 o          1 NJR      -0.610100
      9 O2         -20.0160   -25.1030    -3.9200 o          1 NJR      -0.569100
     10 C8         -17.9810   -22.0110     2.7990 ca         1 NJR      -0.057500
     11 N1         -17.1200   -18.9520     0.8470 nu         1 NJR      -0.986200
     12 C9         -17.2160   -20.9920     2.2020 ca         1 NJR      -0.191000
     13 C10        -15.3870   -20.5410    -0.3150 c          1 NJR       0.601100
     14 C11        -15.5440   -22.4240    -2.0140 c6         1 NJR       0.100000
     15 Cl1        -20.3380   -23.2770     3.4110 cl         1 NJR      -0.214000
     16 N2         -16.0700   -21.1770    -1.3930 n          1 NJR      -0.398800
     17 C12        -16.3710   -23.6530    -1.5630 c6         1 NJR      -0.093400
     18 C13        -17.8800   -23.4730    -1.8910 c6         1 NJR      -0.084700
     19 C14        -18.7090   -24.6940    -1.3960 c3         1 NJR       0.110000
     20 N3         -20.1400   -24.5920    -1.7030 ns         1 NJR      -0.510900
     21 C15        -20.6940   -24.7870    -2.9510 c          1 NJR       0.594100
     22 C16        -22.2170   -24.5810    -3.0130 c3         1 NJR       0.019600
     23 C17        -18.3970   -22.1300    -1.3010 c6         1 NJR      -0.093400
     24 C18        -17.5000   -20.9430    -1.7400 c6         1 NJR       0.100000
     25 Cl2        -22.9480   -24.7940    -4.6750 cl         1 NJR      -0.223000
     26 H1         -15.9820   -17.0610    -0.7240 hc         1 NJR       0.050533
     27 H2         -14.8340   -18.1190    -1.5610 hc         1 NJR       0.050533
     28 H3         -16.5730   -18.3500    -1.7780 hc         1 NJR       0.050533
     29 H4         -14.7180   -19.1550     2.0930 hc         1 NJR       0.050533
     30 H5         -13.7480   -18.5030     0.7600 hc         1 NJR       0.050533
     31 H6         -15.0030   -17.5060     1.5140 hc         1 NJR       0.050533
     32 H7         -19.7400   -19.1560     0.8200 ha         1 NJR       0.122000
     33 H8         -21.0980   -20.9530     1.8790 ha         1 NJR       0.125500
     34 H9         -17.4910   -22.8070     3.3540 ha         1 NJR       0.125500
     35 H10        -17.6950   -18.1650     0.5480 hn         1 NJR       0.485000
     36 H11        -16.1370   -21.0080     2.3130 ha         1 NJR       0.122000
     37 H12        -14.4840   -22.5760    -1.7640 h1         1 NJR       0.056950
     38 H13        -15.6010   -22.3290    -3.1080 h1         1 NJR       0.056950
     39 H14        -16.2370   -23.8010    -0.4820 hc         1 NJR       0.051200
     40 H15        -15.9830   -24.5560    -2.0540 hc         1 NJR       0.051200
     41 H16        -17.9910   -23.4380    -2.9840 hc         1 NJR       0.068700
     42 H17        -18.5930   -24.7870    -0.3080 h1         1 NJR       0.056700
     43 H18        -18.3110   -25.6100    -1.8550 h1         1 NJR       0.056700
     44 H19        -20.7740   -24.3410    -0.9530 hn         1 NJR       0.315500
     45 H20        -22.6960   -25.3000    -2.3380 h1         1 NJR       0.076700
     46 H21        -22.4460   -23.5640    -2.6720 h1         1 NJR       0.076700
     47 H22        -18.4090   -22.1970    -0.2070 hc         1 NJR       0.051200
     48 H23        -19.4310   -21.9400    -1.6170 hc         1 NJR       0.051200
     49 H24        -17.5740   -20.8250    -2.8310 h1         1 NJR       0.056950
     50 H25        -17.8890   -20.0210    -1.2970 h1         1 NJR       0.056950
@<TRIPOS>BOND
     1     1     2 1   
     2     1    26 1   
     3     1    27 1   
     4     1    28 1   
     5     2     3 1   
     6     2    11 1   
     7     2    13 1   
     8     3    29 1   
     9     3    30 1   
    10     3    31 1   
    11     4     5 ar  
    12     4    11 1   
    13     4    12 ar  
    14     5     6 ar  
    15     5    32 1   
    16     6     7 ar  
    17     6    33 1   
    18     7    10 ar  
    19     7    15 1   
    20     8    13 2   
    21     9    21 2   
    22    10    12 ar  
    23    10    34 1   
    24    11    35 1   
    25    12    36 1   
    26    13    16 1   
    27    14    16 1   
    28    14    17 1   
    29    14    37 1   
    30    14    38 1   
    31    16    24 1   
    32    17    18 1   
    33    17    39 1   
    34    17    40 1   
    35    18    19 1   
    36    18    23 1   
    37    18    41 1   
    38    19    20 1   
    39    19    42 1   
    40    19    43 1   
    41    20    21 1   
    42    20    44 1   
    43    21    22 1   
    44    22    25 1   
    45    22    45 1   
    46    22    46 1   
    47    23    24 1   
    48    23    47 1   
    49    23    48 1   
    50    24    49 1   
    51    24    50 1   
@<TRIPOS>SUBSTRUCTURE
     1 NJR         1 TEMP              0 ****  ****    0 ROOT
