@<TRIPOS>MOLECULE
NJT
   34    36     1     0     0
SMALL
No Charge or Current Charge


@<TRIPOS>ATOM
      1 N3           6.0530   -45.6730   -45.3270 n          1 NJT      -0.311000
      2 C4           7.3430   -44.3590   -46.9880 ca         1 NJT      -0.076000
      3 C7           5.5070   -45.4610   -44.0250 c          1 NJT       0.598600
      4 C8           6.7330   -46.9740   -45.5880 c3         1 NJT       0.101000
      5 C10          3.8860   -43.5690   -44.6470 ca         1 NJT       0.311000
      6 C15          3.0900   -42.4770   -44.2730 ca         1 NJT      -0.163000
      7 C17          6.4620   -49.3580   -46.5130 c3         1 NJT      -0.088100
      8 C1           6.1050   -44.6700   -46.3800 ca         1 NJT       0.006600
      9 C2           5.0210   -43.7850   -46.6430 ca         1 NJT       0.545900
     10 N5           3.8610   -43.9580   -45.9600 na         1 NJT      -0.896900
     11 N6           5.0740   -42.7950   -47.5450 nb         1 NJT      -0.711000
     12 C9           7.3980   -43.3130   -47.9220 ca         1 NJT      -0.169000
     13 C11          6.2400   -42.5740   -48.1870 ca         1 NJT       0.358900
     14 C12          4.6810   -44.2380   -43.6970 ca         1 NJT      -0.171600
     15 O13          5.6740   -46.2970   -43.1440 o          1 NJT      -0.544000
     16 C14          5.7790   -48.0080   -46.2180 c3         1 NJT      -0.099400
     17 C16          4.6370   -43.7980   -42.3530 ca         1 NJT      -0.030000
     18 C18          3.0710   -42.0390   -42.9440 ca         1 NJT       0.163000
     19 C19          3.8430   -42.7000   -41.9810 ca         1 NJT      -0.135000
     20 Cl1          2.0740   -40.6670   -42.4830 cl         1 NJT      -0.192000
     21 H1           8.2510   -44.9040   -46.7480 ha         1 NJT       0.130000
     22 H2           7.1590   -47.3830   -44.6630 h1         1 NJT       0.059700
     23 H3           7.5760   -46.8350   -46.2730 h1         1 NJT       0.059700
     24 H4           2.4870   -41.9640   -45.0160 ha         1 NJT       0.136000
     25 H5           5.7460   -50.0590   -46.9580 hc         1 NJT       0.034700
     26 H6           7.2950   -49.2270   -47.2140 hc         1 NJT       0.034700
     27 H7           6.8520   -49.8050   -45.5900 hc         1 NJT       0.034700
     28 H8           2.9930   -44.0760   -46.4680 hn         1 NJT       0.477000
     29 H9           8.3270   -43.0680   -48.4290 ha         1 NJT       0.131000
     30 H10          6.2530   -41.7580   -48.9090 h4         1 NJT       0.025100
     31 H11          5.3720   -47.6010   -47.1520 hc         1 NJT       0.052200
     32 H12          4.9310   -48.1750   -45.5440 hc         1 NJT       0.052200
     33 H13          5.2240   -44.3040   -41.5880 ha         1 NJT       0.137000
     34 H14          3.8240   -42.3660   -40.9460 ha         1 NJT       0.137000
@<TRIPOS>BOND
     1     1     3 1   
     2     1     4 1   
     3     1     8 1   
     4     2     8 ar  
     5     2    12 ar  
     6     2    21 1   
     7     3    14 1   
     8     3    15 2   
     9     4    16 1   
    10     4    22 1   
    11     4    23 1   
    12     5     6 ar  
    13     5    10 1   
    14     5    14 ar  
    15     6    18 ar  
    16     6    24 1   
    17     7    16 1   
    18     7    25 1   
    19     7    26 1   
    20     7    27 1   
    21     8     9 ar  
    22     9    10 1   
    23     9    11 ar  
    24    10    28 1   
    25    11    13 ar  
    26    12    13 ar  
    27    12    29 1   
    28    13    30 1   
    29    14    17 ar  
    30    16    31 1   
    31    16    32 1   
    32    17    19 ar  
    33    17    33 1   
    34    18    19 ar  
    35    18    20 1   
    36    19    34 1   
@<TRIPOS>SUBSTRUCTURE
     1 NJT         1 TEMP              0 ****  ****    0 ROOT
