@<TRIPOS>MOLECULE
NJT
   34    36     1     0     0
SMALL
bcc


@<TRIPOS>ATOM
      1 N3           6.1970   -45.5750   -45.1700 n          1 NJT      -0.378000
      2 C4           7.4520   -44.3000   -46.8140 ca         1 NJT      -0.094000
      3 C7           5.5700   -45.4310   -43.9740 c          1 NJT       0.741100
      4 C8           6.7440   -46.8920   -45.5130 c3         1 NJT       0.101000
      5 C10          3.8900   -43.6480   -44.6250 ca         1 NJT       0.172600
      6 C15          2.9770   -42.6760   -44.2170 ca         1 NJT      -0.181000
      7 C17          6.3020   -49.1090   -46.6180 c3         1 NJT      -0.088100
      8 C1           6.2540   -44.5830   -46.1730 ca         1 NJT      -0.058700
      9 C2           5.1110   -43.9310   -46.6470 ca         1 NJT       0.611200
     10 N5           3.9020   -44.0530   -45.9620 na         1 NJT      -0.703300
     11 N6           5.1130   -43.1640   -47.7210 nb         1 NJT      -0.711000
     12 C9           7.4620   -43.4740   -47.9270 ca         1 NJT      -0.252300
     13 C11          6.2540   -42.9600   -48.3660 ca         1 NJT       0.424200
     14 C12          4.7790   -44.1980   -43.6980 ca         1 NJT      -0.171600
     15 O13          5.6220   -46.2970   -43.1160 o          1 NJT      -0.619500
     16 C14          5.7200   -47.7570   -46.2360 c3         1 NJT      -0.099400
     17 C16          4.7600   -43.7300   -42.3850 ca         1 NJT      -0.048000
     18 C18          2.9820   -42.2420   -42.9060 ca         1 NJT       0.071400
     19 C19          3.8870   -42.7400   -41.9790 ca         1 NJT      -0.153000
     20 CL1          1.8470   -41.0320   -42.4190 cl         1 NJT      -0.100400
     21 H1           8.3740   -44.7450   -46.4630 ha         1 NJT       0.148000
     22 H2           7.0880   -47.3790   -44.6030 h1         1 NJT       0.059700
     23 H3           7.6220   -46.7540   -46.1410 h1         1 NJT       0.059700
     24 H4           2.2790   -42.2590   -44.9310 ha         1 NJT       0.154000
     25 H5           5.5580   -49.7280   -47.1200 hc         1 NJT       0.034700
     26 H6           7.1500   -48.9970   -47.2960 hc         1 NJT       0.034700
     27 H7           6.6490   -49.6560   -45.7400 hc         1 NJT       0.034700
     28 H8           3.1430   -43.6570   -46.5010 hn         1 NJT       0.421800
     29 H9           8.3820   -43.2520   -48.4480 ha         1 NJT       0.149000
     30 H10          6.2020   -42.3510   -49.2600 h4         1 NJT       0.025100
     31 H11          5.3750   -47.2350   -47.1320 hc         1 NJT       0.052200
     32 H12          4.8450   -47.8920   -45.5950 hc         1 NJT       0.052200
     33 H13          5.4370   -44.1600   -41.6600 ha         1 NJT       0.155000
     34 H14          3.8930   -42.3830   -40.9590 ha         1 NJT       0.155000
@<TRIPOS>BOND
     1     1     3 1   
     2     1     4 1   
     3     1     8 1   
     4     2     8 ar  
     5     2    12 ar  
     6     2    21 1   
     7     3    14 1   
     8     3    15 2   
     9     4    16 1   
    10     4    22 1   
    11     4    23 1   
    12     5     6 ar  
    13     5    10 1   
    14     5    14 ar  
    15     6    18 ar  
    16     6    24 1   
    17     7    16 1   
    18     7    25 1   
    19     7    26 1   
    20     7    27 1   
    21     8     9 ar  
    22     9    10 1   
    23     9    11 ar  
    24    10    28 1   
    25    11    13 ar  
    26    12    13 ar  
    27    12    29 1   
    28    13    30 1   
    29    14    17 ar  
    30    16    31 1   
    31    16    32 1   
    32    17    19 ar  
    33    17    33 1   
    34    18    19 ar  
    35    18    20 1   
    36    19    34 1   
@<TRIPOS>SUBSTRUCTURE
     1 NJT         1 TEMP              0 ****  ****    0 ROOT
