@<TRIPOS>MOLECULE
NJU
   38    40     1     0     0
SMALL
abcg2


@<TRIPOS>ATOM
      1 N1           7.0050     0.3980    17.2200 nb         1 NJU      -0.652000
      2 C4          11.1010    -0.8790    22.4730 ca         1 NJU      -0.068300
      3 C5           9.6330    -1.1880    22.3400 c3         1 NJU      -0.108100
      4 C6           8.9270    -0.2130    21.4040 c          1 NJU       0.598100
      5 C7           7.3290    -0.0670    19.5450 ca         1 NJU      -0.101000
      6 C8           7.6730    -0.2010    18.2060 ca         1 NJU       0.322900
      7 C10          5.5490     1.3760    18.8790 ca         1 NJU      -0.118300
      8 C13          4.7950     1.9680    21.5940 c6         1 NJU      -0.073400
      9 C15          6.2420     0.7340    19.9130 ca         1 NJU      -0.016300
     10 O            9.0880     1.0000    21.4820 o          1 NJU      -0.576100
     11 C3          11.5730    -0.0410    23.4810 ca         1 NJU      -0.083000
     12 C2          12.9270     0.2620    23.5710 ca         1 NJU      -0.099000
     13 C1          13.8320    -0.2660    22.6580 ca         1 NJU      -0.096000
     14 C16         12.0050    -1.4140    21.5550 ca         1 NJU      -0.097000
     15 C           13.3520    -1.1020    21.6600 ca         1 NJU       0.125000
     16 CL          14.4770    -1.7840    20.5000 cl         1 NJU      -0.213000
     17 N            8.0850    -0.7900    20.5120 ns         1 NJU      -0.170000
     18 C14          5.8010     0.8440    21.3500 c6         1 NJU      -0.034100
     19 C12          3.7220     1.9890    20.5100 c6         1 NJU      -0.074400
     20 C11          4.3630     2.2690    19.1530 c6         1 NJU      -0.027100
     21 C9           5.9730     1.1670    17.5670 ca         1 NJU       0.330900
     22 H1           9.1400    -1.0890    23.3100 hc         1 NJU       0.066200
     23 H2           9.4870    -2.2130    22.0000 hc         1 NJU       0.066200
     24 H3           8.5170    -0.8250    17.9330 h4         1 NJU       0.021100
     25 H4           5.3170     2.9300    21.6000 hc         1 NJU       0.046700
     26 H5           4.3480     1.8430    22.5820 hc         1 NJU       0.046700
     27 H6          10.8770     0.3740    24.1980 ha         1 NJU       0.121000
     28 H7          13.2850     0.9130    24.3590 ha         1 NJU       0.121000
     29 H8          14.8870    -0.0390    22.7220 ha         1 NJU       0.131000
     30 H9          11.6590    -2.0690    20.7660 ha         1 NJU       0.124000
     31 H10          8.0910    -1.7960    20.4390 hn         1 NJU       0.154000
     32 H11          5.3560    -0.1170    21.6330 hc         1 NJU       0.058700
     33 H12          6.6720     0.9750    21.9900 hc         1 NJU       0.058700
     34 H13          2.9670     2.7480    20.7260 hc         1 NJU       0.044200
     35 H14          3.2090     1.0220    20.4840 hc         1 NJU       0.044200
     36 H15          4.6970     3.3120    19.1260 hc         1 NJU       0.052200
     37 H16          3.6350     2.1590    18.3460 hc         1 NJU       0.052200
     38 H17          5.4350     1.6490    16.7560 h4         1 NJU       0.019100
@<TRIPOS>BOND
     1     1     6 ar  
     2     1    21 ar  
     3     2     3 1   
     4     2    11 ar  
     5     2    14 ar  
     6     3     4 1   
     7     3    22 1   
     8     3    23 1   
     9     4    10 2   
    10     4    17 1   
    11     5     6 ar  
    12     5     9 ar  
    13     5    17 1   
    14     6    24 1   
    15     7     9 ar  
    16     7    20 1   
    17     7    21 ar  
    18     8    18 1   
    19     8    19 1   
    20     8    25 1   
    21     8    26 1   
    22     9    18 1   
    23    11    12 ar  
    24    11    27 1   
    25    12    13 ar  
    26    12    28 1   
    27    13    15 ar  
    28    13    29 1   
    29    14    15 ar  
    30    14    30 1   
    31    15    16 1   
    32    17    31 1   
    33    18    32 1   
    34    18    33 1   
    35    19    20 1   
    36    19    34 1   
    37    19    35 1   
    38    20    36 1   
    39    20    37 1   
    40    21    38 1   
@<TRIPOS>SUBSTRUCTURE
     1 NJU         1 TEMP              0 ****  ****    0 ROOT
