@<TRIPOS>MOLECULE
NJU
   38    40     1     0     0
SMALL
No Charge or Current Charge


@<TRIPOS>ATOM
      1 N1           7.5740     0.9920    17.4330 nb         1 NJU      -0.652000
      2 C4          11.1070    -0.7930    22.6150 ca         1 NJU      -0.068300
      3 C5           9.6000    -0.7960    22.8510 c3         1 NJU      -0.108100
      4 C6           8.9070     0.2160    21.9310 c          1 NJU       0.598100
      5 C7           7.5930     0.3200    19.7690 ca         1 NJU      -0.101000
      6 C8           8.1760     0.4030    18.4890 ca         1 NJU       0.322900
      7 C10          5.6640     1.4680    18.8600 ca         1 NJU      -0.118300
      8 C13          4.3320     1.6470    21.4560 c6         1 NJU      -0.073400
      9 C15          6.3020     0.8650    19.9720 ca         1 NJU      -0.016300
     10 O            8.9050     1.4200    22.1660 o          1 NJU      -0.576100
     11 C3          11.9400     0.0800    23.3430 ca         1 NJU      -0.083000
     12 C2          13.3280     0.0880    23.1210 ca         1 NJU      -0.099000
     13 C1          13.8930    -0.7770    22.1670 ca         1 NJU      -0.096000
     14 C16         11.6790    -1.6570    21.6590 ca         1 NJU      -0.097000
     15 C           13.0670    -1.6480    21.4380 ca         1 NJU       0.125000
     16 Cl          13.7710    -2.7290    20.2430 cl         1 NJU      -0.213000
     17 N            8.3120    -0.3300    20.8050 ns         1 NJU      -0.170000
     18 C14          5.5790     0.7420    21.3270 c6         1 NJU      -0.034100
     19 C12          3.4660     1.5700    20.1840 c6         1 NJU      -0.074400
     20 C11          4.2610     2.0780    18.9630 c6         1 NJU      -0.027100
     21 C9           6.3440     1.5150    17.6260 ca         1 NJU       0.330900
     22 H1           9.3910    -0.5250    23.8920 hc         1 NJU       0.066200
     23 H2           9.2090    -1.8020    22.6540 hc         1 NJU       0.066200
     24 H3           9.1650    -0.0140    18.3040 h4         1 NJU       0.021100
     25 H4           4.6450     2.6870    21.6250 hc         1 NJU       0.046700
     26 H5           3.7440     1.3500    22.3350 hc         1 NJU       0.046700
     27 H6          11.5110     0.7550    24.0800 ha         1 NJU       0.121000
     28 H7          13.9650     0.7650    23.6860 ha         1 NJU       0.121000
     29 H8          14.9660    -0.7730    21.9930 ha         1 NJU       0.131000
     30 H9          11.0530    -2.3360    21.0870 ha         1 NJU       0.124000
     31 H10          8.4230    -1.3310    20.6940 hn         1 NJU       0.154000
     32 H11          5.2780    -0.3050    21.4690 hc         1 NJU       0.058700
     33 H12          6.2590     0.9770    22.1550 hc         1 NJU       0.058700
     34 H13          2.5520     2.1670    20.3110 hc         1 NJU       0.044200
     35 H14          3.1450     0.5320    20.0160 hc         1 NJU       0.044200
     36 H15          4.3540     3.1710    19.0210 hc         1 NJU       0.052200
     37 H16          3.6910     1.8690    18.0470 hc         1 NJU       0.052200
     38 H17          5.8800     1.9800    16.7570 h4         1 NJU       0.019100
@<TRIPOS>BOND
     1     1     6 ar  
     2     1    21 ar  
     3     2     3 1   
     4     2    11 ar  
     5     2    14 ar  
     6     3     4 1   
     7     3    22 1   
     8     3    23 1   
     9     4    10 2   
    10     4    17 1   
    11     5     6 ar  
    12     5     9 ar  
    13     5    17 1   
    14     6    24 1   
    15     7     9 ar  
    16     7    20 1   
    17     7    21 ar  
    18     8    18 1   
    19     8    19 1   
    20     8    25 1   
    21     8    26 1   
    22     9    18 1   
    23    11    12 ar  
    24    11    27 1   
    25    12    13 ar  
    26    12    28 1   
    27    13    15 ar  
    28    13    29 1   
    29    14    15 ar  
    30    14    30 1   
    31    15    16 1   
    32    17    31 1   
    33    18    32 1   
    34    18    33 1   
    35    19    20 1   
    36    19    34 1   
    37    19    35 1   
    38    20    36 1   
    39    20    37 1   
    40    21    38 1   
@<TRIPOS>SUBSTRUCTURE
     1 NJU         1 TEMP              0 ****  ****    0 ROOT
