@<TRIPOS>MOLECULE
NJV
   57    61     1     0     0
SMALL
No Charge or Current Charge


@<TRIPOS>ATOM
      1 C1          -1.2130    -2.9040     1.3890 ca         1 NJV       0.236000
      2 C6          -2.4640    -3.5050     1.1860 ca         1 NJV      -0.164000
      3 C11         -6.4690     2.2420    -0.6540 cx         1 NJV      -0.143000
      4 C12         -6.0890     3.4110    -1.5370 cx         1 NJV      -0.126400
      5 C16          3.6810     1.7610     0.5430 ca         1 NJV       0.357000
      6 N           -4.3670    -0.6570    -0.2630 na         1 NJV      -0.086300
      7 CA          -3.3410    -1.4240     0.2930 ca         1 NJV      -0.036200
      8 C           -3.5390    -2.7800     0.6440 ca         1 NJV      -0.012300
      9 CB          -2.0850    -0.8200     0.5060 ca         1 NJV      -0.054000
     10 CG          -0.9980    -1.5460     1.0590 ca         1 NJV      -0.207600
     11 CD           0.3540    -0.8890     1.2780 c          1 NJV       0.639700
     12 NE           0.3810     0.4800     1.1000 ns         1 NJV      -0.332900
     13 CZ           1.4540     1.3790     1.1370 ca         1 NJV       0.482900
     14 NH1          2.6060     0.9280     0.6100 nb         1 NJV      -0.698000
     15 C10         -4.7830     0.5530     0.2280 cc         1 NJV      -0.220000
     16 C13         -5.8830     3.4980    -0.0440 cx         1 NJV      -0.126400
     17 C17          3.5760     3.1000     0.9940 ca         1 NJV      -0.138000
     18 C18          2.3620     3.5790     1.5140 ca         1 NJV      -0.053000
     19 C19          1.2760     2.6960     1.5750 ca         1 NJV      -0.196000
     20 C20          4.9780     1.2770    -0.0270 cc         1 NJV       0.317500
     21 C21          6.5910     0.0910    -0.9550 cc         1 NJV       0.368400
     22 C23          3.6100    -1.3340    -1.7550 c3         1 NJV      -0.104100
     23 C24          5.3060    -2.5210    -0.2670 c3         1 NJV      -0.104100
     24 C7          -4.8870    -3.4750     0.4700 c3         1 NJV      -0.059800
     25 C8          -4.9760    -0.9150    -1.4690 cc         1 NJV       0.408400
     26 C9          -5.6960     0.9760    -0.7060 cd         1 NJV       0.281300
     27 F1          -0.2360    -3.6670     1.9280 f          1 NJV      -0.150000
     28 N2          -5.8170     0.0740    -1.7510 nd         1 NJV      -0.663000
     29 N5           5.3000    -0.0060    -0.4800 na         1 NJV      -0.332000
     30 N6           7.0410     1.3200    -0.7770 nd         1 NJV      -0.364000
     31 N7           6.0420     2.0560    -0.2000 nd         1 NJV      -0.362000
     32 O1           1.3500    -1.5240     1.5970 o          1 NJV      -0.531100
     33 H1          -2.5950    -4.5480     1.4610 ha         1 NJV       0.144000
     34 H2          -7.5320     2.0740    -0.5020 hc         1 NJV       0.093700
     35 H3          -5.2070     3.3080    -2.1650 hc         1 NJV       0.071200
     36 H4          -6.8940     3.9970    -1.9740 hc         1 NJV       0.071200
     37 H5          -1.9700     0.2210     0.2130 ha         1 NJV       0.140000
     38 H6          -0.5130     0.9140     0.9230 hn         1 NJV       0.160000
     39 H7          -4.4310     0.9950     1.1500 h4         1 NJV       0.158000
     40 H8          -6.5490     4.1430     0.5240 hc         1 NJV       0.071200
     41 H9          -4.8600     3.4650     0.3250 hc         1 NJV       0.071200
     42 H10          4.4300     3.7680     0.9370 ha         1 NJV       0.156000
     43 H11          2.2670     4.6080     1.8540 ha         1 NJV       0.127000
     44 H12          0.3130     3.0240     1.9570 ha         1 NJV       0.125000
     45 H13          7.1330    -0.7370    -1.3950 h5         1 NJV       0.063100
     46 H14          3.7940    -1.1920     0.3840 h1         1 NJV       0.109700
     47 H15          2.9530    -2.2100    -1.7120 hc         1 NJV       0.047867
     48 H16          2.9790    -0.4440    -1.8680 hc         1 NJV       0.047867
     49 H17          4.2420    -1.4200    -2.6460 hc         1 NJV       0.047867
     50 H18          5.9210    -2.4380     0.6380 hc         1 NJV       0.047867
     51 H19          4.6460    -3.3880    -0.1460 hc         1 NJV       0.047867
     52 H20          5.9650    -2.7150    -1.1210 hc         1 NJV       0.047867
     53 H21         -5.7160    -2.8300     0.7880 hc         1 NJV       0.059033
     54 H22         -5.0560    -3.7540    -0.5760 hc         1 NJV       0.059033
     55 H23         -4.9480    -4.3920     1.0680 hc         1 NJV       0.059033
     56 H24         -4.7700    -1.7950    -2.0670 h5         1 NJV       0.059100
     57 C22          4.4710    -1.2370    -0.4780 c3         1 NJV       0.090300
@<TRIPOS>BOND
     1     1     2 ar  
     2     1    10 ar  
     3     1    27 1   
     4     2     8 ar  
     5     2    33 1   
     6     3     4 1   
     7     3    16 1   
     8     3    26 1   
     9     3    34 1   
    10     4    16 1   
    11     4    35 1   
    12     4    36 1   
    13     5    14 ar  
    14     5    17 ar  
    15     5    20 1   
    16     6     7 1   
    17     6    15 1   
    18     6    25 1   
    19     7     8 ar  
    20     7     9 ar  
    21     8    24 1   
    22     9    10 ar  
    23     9    37 1   
    24    10    11 1   
    25    11    12 1   
    26    11    32 2   
    27    12    13 1   
    28    12    38 1   
    29    13    14 ar  
    30    13    19 ar  
    31    15    26 2   
    32    15    39 1   
    33    16    40 1   
    34    16    41 1   
    35    17    18 ar  
    36    17    42 1   
    37    18    19 ar  
    38    18    43 1   
    39    19    44 1   
    40    20    29 1   
    41    20    31 2   
    42    21    29 1   
    43    21    30 2   
    44    21    45 1   
    45    22    47 1   
    46    22    48 1   
    47    22    49 1   
    48    22    57 1   
    49    23    50 1   
    50    23    51 1   
    51    23    52 1   
    52    23    57 1   
    53    24    53 1   
    54    24    54 1   
    55    24    55 1   
    56    25    28 2   
    57    25    56 1   
    58    26    28 1   
    59    29    57 1   
    60    30    31 1   
    61    46    57 1   
@<TRIPOS>SUBSTRUCTURE
     1 NJV         1 TEMP              0 ****  ****    0 ROOT
