@<TRIPOS>MOLECULE
NJV
   57    61     1     0     0
SMALL
abcg2


@<TRIPOS>ATOM
      1 C1          -1.2920    -2.7330     1.8330 ca         1 NJV       0.236000
      2 C6          -2.5580    -3.2690     1.7320 ca         1 NJV      -0.164000
      3 C11         -6.2890     2.0720    -1.3600 cx         1 NJV      -0.143000
      4 C12         -5.6830     3.2240    -2.1150 cx         1 NJV      -0.126400
      5 C16          3.6800     1.6730     0.8120 ca         1 NJV       0.357000
      6 N           -4.1630    -0.7100    -0.3890 na         1 NJV      -0.086300
      7 CA          -3.2050    -1.4180     0.3730 ca         1 NJV      -0.036200
      8 C           -3.5470    -2.6170     1.0020 ca         1 NJV      -0.012300
      9 CB          -1.9340    -0.8810     0.4970 ca         1 NJV      -0.054000
     10 CG          -0.9490    -1.5280     1.2350 ca         1 NJV      -0.207600
     11 CD           0.4370    -0.9790     1.3280 c          1 NJV       0.639700
     12 NE           0.4640     0.3680     1.5480 ns         1 NJV      -0.332900
     13 CZ           1.5970     1.1820     1.5950 ca         1 NJV       0.482900
     14 NH1          2.6000     0.9000     0.7870 nb         1 NJV      -0.698000
     15 C10         -4.6370     0.5530    -0.1260 cc         1 NJV      -0.220000
     16 C13         -5.9320     3.3370    -0.6440 cx         1 NJV      -0.126400
     17 C17          3.7900     2.7880     1.6370 ca         1 NJV      -0.138000
     18 C18          2.7180     3.0910     2.4610 ca         1 NJV      -0.053000
     19 C19          1.5990     2.2790     2.4550 ca         1 NJV      -0.196000
     20 C20          4.7740     1.3450    -0.1050 cc         1 NJV       0.317500
     21 C21          6.1070     0.3890    -1.4770 cc         1 NJV       0.368400
     22 C23          3.1800    -1.0690    -1.8580 c3         1 NJV      -0.104100
     23 C24          5.1370    -2.2840    -0.8210 c3         1 NJV      -0.104100
     24 C7          -4.9250    -3.1970     0.9210 c3         1 NJV      -0.059800
     25 C8          -4.7610    -1.1220    -1.5330 cc         1 NJV       0.408400
     26 C9          -5.5050     0.8430    -1.1390 cd         1 NJV       0.281300
     27 F1          -0.3880    -3.3850     2.5670 f          1 NJV      -0.150000
     28 N2          -5.5690    -0.2160    -2.0080 nd         1 NJV      -0.663000
     29 N5           4.9880     0.1690    -0.7550 na         1 NJV      -0.332000
     30 N6           6.5550     1.5980    -1.2840 nd         1 NJV      -0.364000
     31 N7           5.7160     2.1990    -0.4210 nd         1 NJV      -0.362000
     32 O1           1.4160    -1.6830     1.2190 o          1 NJV      -0.531100
     33 H1          -2.7840    -4.1970     2.2420 ha         1 NJV       0.144000
     34 H2          -7.3470     1.9050    -1.5380 hc         1 NJV       0.093700
     35 H3          -4.6580     3.1190    -2.4500 hc         1 NJV       0.071200
     36 H4          -6.3220     3.7780    -2.7910 hc         1 NJV       0.071200
     37 H5          -1.7030     0.0470    -0.0110 ha         1 NJV       0.140000
     38 H6          -0.3940     0.7930     1.8650 hn         1 NJV       0.160000
     39 H7          -4.3250     1.1040     0.7460 h4         1 NJV       0.158000
     40 H8          -6.7420     3.9700    -0.3060 hc         1 NJV       0.071200
     41 H9          -5.0740     3.3270     0.0170 hc         1 NJV       0.071200
     42 H10          4.6820     3.3970     1.6300 ha         1 NJV       0.156000
     43 H11          2.7600     3.9510     3.1160 ha         1 NJV       0.127000
     44 H12          0.7560     2.4810     3.1030 ha         1 NJV       0.125000
     45 H13          6.5610    -0.3470    -2.1200 h5         1 NJV       0.063100
     46 H14          3.6850    -1.1030     0.2090 h1         1 NJV       0.109700
     47 H15          2.5700    -1.9700    -1.8000 hc         1 NJV       0.047867
     48 H16          2.5170    -0.2120    -1.7670 hc         1 NJV       0.047867
     49 H17          3.6590    -1.0450    -2.8390 hc         1 NJV       0.047867
     50 H18          5.8920    -2.2640    -0.0350 hc         1 NJV       0.047867
     51 H19          4.5460    -3.1910    -0.6950 hc         1 NJV       0.047867
     52 H20          5.6410    -2.3600    -1.7860 hc         1 NJV       0.047867
     53 H21         -5.6910    -2.4320     1.0460 hc         1 NJV       0.059033
     54 H22         -5.0990    -3.6780    -0.0420 hc         1 NJV       0.059033
     55 H23         -5.0690    -3.9520     1.6920 hc         1 NJV       0.059033
     56 H24         -4.5510    -2.0850    -1.9750 h5         1 NJV       0.059100
     57 C22          4.2100    -1.0810    -0.7410 c3         1 NJV       0.090300
@<TRIPOS>BOND
     1     1     2 ar  
     2     1    10 ar  
     3     1    27 1   
     4     2     8 ar  
     5     2    33 1   
     6     3     4 1   
     7     3    16 1   
     8     3    26 1   
     9     3    34 1   
    10     4    16 1   
    11     4    35 1   
    12     4    36 1   
    13     5    14 ar  
    14     5    17 ar  
    15     5    20 1   
    16     6     7 1   
    17     6    15 1   
    18     6    25 1   
    19     7     8 ar  
    20     7     9 ar  
    21     8    24 1   
    22     9    10 ar  
    23     9    37 1   
    24    10    11 1   
    25    11    12 1   
    26    11    32 2   
    27    12    13 1   
    28    12    38 1   
    29    13    14 ar  
    30    13    19 ar  
    31    15    26 2   
    32    15    39 1   
    33    16    40 1   
    34    16    41 1   
    35    17    18 ar  
    36    17    42 1   
    37    18    19 ar  
    38    18    43 1   
    39    19    44 1   
    40    20    29 1   
    41    20    31 2   
    42    21    29 1   
    43    21    30 2   
    44    21    45 1   
    45    22    47 1   
    46    22    48 1   
    47    22    49 1   
    48    22    57 1   
    49    23    50 1   
    50    23    51 1   
    51    23    52 1   
    52    23    57 1   
    53    24    53 1   
    54    24    54 1   
    55    24    55 1   
    56    25    28 2   
    57    25    56 1   
    58    26    28 1   
    59    29    57 1   
    60    30    31 1   
    61    46    57 1   
@<TRIPOS>SUBSTRUCTURE
     1 NJV         1 TEMP              0 ****  ****    0 ROOT
