@<TRIPOS>MOLECULE
NJW
   50    53     1     0     0
SMALL
No Charge or Current Charge


@<TRIPOS>ATOM
      1 C19         33.3150    16.9140    11.7040 c          1 NJW       0.727600
      2 C17         32.5550    13.4080    13.0600 ca         1 NJW      -0.216000
      3 C14         33.0970    15.7510    12.6460 ca         1 NJW      -0.271600
      4 C18         32.7270    13.5960    14.4380 ca         1 NJW      -0.071000
      5 C15         32.7270    14.4760    12.1730 ca         1 NJW       0.227100
      6 C12         33.0270    14.8740    14.9530 ca         1 NJW      -0.170000
      7 C10         32.6270    14.2590    17.4320 c5         1 NJW       0.241200
      8 C22         34.3820    15.7990    16.8990 c          1 NJW       0.477000
      9 O23         35.1990    16.4700    16.2680 o          1 NJW      -0.496000
     10 C03         31.5890    13.3890    20.1990 ca         1 NJW      -0.102800
     11 C04         30.4770    13.7880    20.9730 ca         1 NJW      -0.083000
     12 C05         29.4040    12.9050    21.1850 ca         1 NJW      -0.112500
     13 C06         29.4330    11.6150    20.6320 ca         1 NJW      -0.094000
     14 C07         30.5390    11.2060    19.8670 ca         1 NJW      -0.112500
     15 C08         31.6110    12.0890    19.6530 ca         1 NJW      -0.083000
     16 C09         33.2400    14.7160    18.7680 ce         1 NJW      -0.412400
     17 C13         33.2700    15.9260    14.0400 ca         1 NJW      -0.011000
     18 C24         34.3410    15.6520    18.4500 c          1 NJW       0.512300
     19 C26         31.1410    14.5970    17.2850 ca         1 NJW      -0.036300
     20 C27         30.6680    15.9030    17.5230 ca         1 NJW      -0.098000
     21 C28         29.3000    16.2040    17.4140 ca         1 NJW      -0.046000
     22 C29         28.3710    15.1970    17.0640 ca         1 NJW      -0.177200
     23 C30         28.8450    13.8860    16.8250 ca         1 NJW      -0.046000
     24 C31         30.2150    13.5950    16.9350 ca         1 NJW      -0.098000
     25 N01         33.2480    14.8260    21.0730 nv         1 NJW      -0.953000
     26 N11         33.3470    15.0150    16.3590 n          1 NJW      -0.214400
     27 N32         26.9110    15.5120    16.9510 no         1 NJW       0.698200
     28 O16         32.5540    14.2550    10.8450 oh         1 NJW      -0.628100
     29 O20         33.1680    16.7170    10.5040 o          1 NJW      -0.690500
     30 O21         33.6220    18.0000    12.1710 o          1 NJW      -0.690500
     31 O33         26.1360    14.5960    16.6420 o          1 NJW      -0.411500
     32 O34         26.5430    16.6730    17.1730 o          1 NJW      -0.411500
     33 H171        32.2990    12.4230    12.6780 ha         1 NJW       0.106000
     34 H181        32.6210    12.7400    15.0990 ha         1 NJW       0.087000
     35 H101        32.7900    13.1830    17.2930 h1         1 NJW       0.056700
     36 H041        30.4370    14.7910    21.3930 ha         1 NJW       0.123500
     37 H051        28.5480    13.2230    21.7760 ha         1 NJW       0.117500
     38 H061        28.6020    10.9320    20.7960 ha         1 NJW       0.115000
     39 H071        30.5650    10.2060    19.4420 ha         1 NJW       0.117500
     40 H081        32.4660    11.7570    19.0690 ha         1 NJW       0.123500
     41 H131        33.5570    16.9030    14.4210 ha         1 NJW       0.129000
     42 H271        31.3640    16.6910    17.8000 ha         1 NJW       0.128500
     43 H281        28.9700    17.2240    17.6060 ha         1 NJW       0.146000
     44 H301        28.1590    13.0850    16.5560 ha         1 NJW       0.146000
     45 H311        30.5570    12.5790    16.7540 ha         1 NJW       0.128500
     46 H011        32.9960    14.4640    21.9890 hn         1 NJW       0.507500
     47 H4          34.0760    15.4160    21.0150 hn         1 NJW       0.507500
     48 H1          32.7490    15.1440    10.4280 ho         1 NJW       0.553000
     49 C02         32.7000    14.3270    19.9470 cf         1 NJW       0.317800
     50 O25         35.0710    16.2200    19.2620 o          1 NJW      -0.555100
@<TRIPOS>BOND
     1     1     3 1   
     2     1    29 1   
     3     1    30 1   
     4     2     4 ar  
     5     2     5 ar  
     6     2    33 1   
     7     3     5 ar  
     8     3    17 ar  
     9     4     6 ar  
    10     4    34 1   
    11     5    28 1   
    12     6    17 ar  
    13     6    26 1   
    14     7    16 1   
    15     7    19 1   
    16     7    26 1   
    17     7    35 1   
    18     8     9 2   
    19     8    18 1   
    20     8    26 1   
    21    10    11 ar  
    22    10    15 ar  
    23    10    49 1   
    24    11    12 ar  
    25    11    36 1   
    26    12    13 ar  
    27    12    37 1   
    28    13    14 ar  
    29    13    38 1   
    30    14    15 ar  
    31    14    39 1   
    32    15    40 1   
    33    16    18 1   
    34    16    49 2   
    35    17    41 1   
    36    18    50 2   
    37    19    20 ar  
    38    19    24 ar  
    39    20    21 ar  
    40    20    42 1   
    41    21    22 ar  
    42    21    43 1   
    43    22    23 ar  
    44    22    27 1   
    45    23    24 ar  
    46    23    44 1   
    47    24    45 1   
    48    25    46 1   
    49    25    47 1   
    50    25    49 1   
    51    27    31 1   
    52    27    32 1   
    53    28    48 1   
@<TRIPOS>SUBSTRUCTURE
     1 NJW         1 TEMP              0 ****  ****    0 ROOT
