@<TRIPOS>MOLECULE
NJW
   50    53     1     0     0
SMALL
bcc


@<TRIPOS>ATOM
      1 C19         31.9740    16.7870    12.2250 c          1 NJW       0.938200
      2 C17         33.3460    13.3300    13.0500 ca         1 NJW      -0.234000
      3 C14         32.5480    15.6190    12.9890 ca         1 NJW      -0.271600
      4 C18         33.5930    13.4560    14.4040 ca         1 NJW      -0.089000
      5 C15         32.8250    14.4080    12.3240 ca         1 NJW       0.227100
      6 C12         33.3190    14.6510    15.0640 ca         1 NJW      -0.077400
      7 C10         32.6740    14.1230    17.4240 c5         1 NJW       0.241200
      8 C22         34.5890    15.4430    16.9960 c          1 NJW       0.619500
      9 O23         35.4690    16.0360    16.4090 o          1 NJW      -0.571500
     10 C03         31.5490    13.4230    20.1290 ca         1 NJW      -0.102800
     11 C04         30.3960    13.9730    20.6840 ca         1 NJW      -0.101000
     12 C05         29.2440    13.2070    20.7850 ca         1 NJW      -0.130500
     13 C06         29.2460    11.8880    20.3530 ca         1 NJW      -0.112000
     14 C07         30.4000    11.3340    19.8160 ca         1 NJW      -0.130500
     15 C08         31.5490    12.1000    19.6980 ca         1 NJW      -0.101000
     16 C09         33.2900    14.5280    18.7380 ce         1 NJW      -0.412400
     17 C13         32.7990    15.7190    14.3510 ca         1 NJW      -0.029000
     18 C24         34.4410    15.3200    18.5060 c          1 NJW       0.512300
     19 C26         31.2440    14.5790    17.2440 ca         1 NJW      -0.036300
     20 C27         30.9020    15.9160    17.4270 ca         1 NJW      -0.116000
     21 C28         29.5960    16.3370    17.2690 ca         1 NJW      -0.064000
     22 C29         28.6280    15.4020    16.9230 ca         1 NJW      -0.177200
     23 C30         28.9450    14.0680    16.7260 ca         1 NJW      -0.064000
     24 C31         30.2610    13.6680    16.8860 ca         1 NJW      -0.116000
     25 N01         33.2820    14.7480    21.1010 nv         1 NJW      -0.842600
     26 N11         33.5530    14.7680    16.4540 n          1 NJW      -0.374000
     27 N32         27.2490    15.8360    16.7630 no         1 NJW       0.318200
     28 O16         32.5930    14.2800    11.0250 oh         1 NJW      -0.589100
     29 O20         31.7870    16.5820    10.9840 o          1 NJW      -0.795800
     30 O21         31.7270    17.8340    12.8250 o          1 NJW      -0.795800
     31 O33         26.4290    15.0130    16.4310 o          1 NJW      -0.221500
     32 O34         26.9920    16.9990    16.9700 o          1 NJW      -0.221500
     33 H171        33.5610    12.3990    12.5410 ha         1 NJW       0.124000
     34 H181        34.0010    12.6170    14.9560 ha         1 NJW       0.105000
     35 H101        32.7150    13.0400    17.2650 h1         1 NJW       0.056700
     36 H041        30.3920    15.0050    21.0140 ha         1 NJW       0.141500
     37 H051        28.3450    13.6420    21.2020 ha         1 NJW       0.135500
     38 H061        28.3470    11.2910    20.4350 ha         1 NJW       0.133000
     39 H071        30.4070    10.3030    19.4870 ha         1 NJW       0.135500
     40 H081        32.4490    11.6670    19.2780 ha         1 NJW       0.141500
     41 H131        32.5750    16.6470    14.8600 ha         1 NJW       0.147000
     42 H271        31.6600    16.6390    17.7030 ha         1 NJW       0.146500
     43 H281        29.3430    17.3770    17.4160 ha         1 NJW       0.164000
     44 H301        28.1900    13.3450    16.4520 ha         1 NJW       0.164000
     45 H311        30.5200    12.6280    16.7340 ha         1 NJW       0.146500
     46 H011        32.9130    14.4920    22.0010 hn         1 NJW       0.452300
     47 H4          34.0990    15.3410    21.0680 hn         1 NJW       0.452300
     48 H1          32.2190    15.2050    10.7610 ho         1 NJW       0.514000
     49 C02         32.7640    14.2550    19.9860 cf         1 NJW       0.317800
     50 O25         35.2150    15.8510    19.2950 o          1 NJW      -0.555100
@<TRIPOS>BOND
     1     1     3 1   
     2     1    29 1   
     3     1    30 1   
     4     2     4 ar  
     5     2     5 ar  
     6     2    33 1   
     7     3     5 ar  
     8     3    17 ar  
     9     4     6 ar  
    10     4    34 1   
    11     5    28 1   
    12     6    17 ar  
    13     6    26 1   
    14     7    16 1   
    15     7    19 1   
    16     7    26 1   
    17     7    35 1   
    18     8     9 2   
    19     8    18 1   
    20     8    26 1   
    21    10    11 ar  
    22    10    15 ar  
    23    10    49 1   
    24    11    12 ar  
    25    11    36 1   
    26    12    13 ar  
    27    12    37 1   
    28    13    14 ar  
    29    13    38 1   
    30    14    15 ar  
    31    14    39 1   
    32    15    40 1   
    33    16    18 1   
    34    16    49 2   
    35    17    41 1   
    36    18    50 2   
    37    19    20 ar  
    38    19    24 ar  
    39    20    21 ar  
    40    20    42 1   
    41    21    22 ar  
    42    21    43 1   
    43    22    23 ar  
    44    22    27 1   
    45    23    24 ar  
    46    23    44 1   
    47    24    45 1   
    48    25    46 1   
    49    25    47 1   
    50    25    49 1   
    51    27    31 1   
    52    27    32 1   
    53    28    48 1   
@<TRIPOS>SUBSTRUCTURE
     1 NJW         1 TEMP              0 ****  ****    0 ROOT
