@<TRIPOS>MOLECULE
NJX
   57    59     1     0     0
SMALL
No Charge or Current Charge


@<TRIPOS>ATOM
      1 C13          4.1690    -7.0550    83.7890 c6         1 NJX      -0.064400
      2 C15          2.9040    -4.9200    84.2950 c          1 NJX       0.610300
      3 C21         -1.7220    -2.5200    83.0010 c          1 NJX       0.597600
      4 C26         -4.8270    -2.9890    83.9310 c1         1 NJX      -0.120100
      5 C1           2.1220    -2.1130    83.3220 ca         1 NJX      -0.172600
      6 C2           2.1700    -0.9120    84.0420 ca         1 NJX      -0.009000
      7 C3           0.9950    -0.2640    84.4180 ca         1 NJX      -0.183000
      8 C4          -0.2650    -0.8310    84.1400 ca         1 NJX       0.137600
      9 C5          -0.3410    -1.9970    83.3470 ca         1 NJX      -0.210600
     10 C6           0.8660    -2.6330    82.9030 ca         1 NJX       0.080700
     11 C7           0.8390    -3.7990    81.9020 c3         1 NJX      -0.055800
     12 C8           3.4440    -2.7700    83.0160 c          1 NJX       0.639900
     13 C9           3.6310    -4.2350    83.1940 ce         1 NJX      -0.496400
     14 C11          4.4290    -4.9470    82.3690 c2         1 NJX       0.288900
     15 C12          4.6210    -6.4560    82.4390 c6         1 NJX      -0.075200
     16 C14          2.8160    -6.4460    84.2100 c6         1 NJX      -0.183400
     17 C19         -2.7330    -0.5130    84.0260 c          1 NJX       0.626000
     18 C27         -5.3330    -3.6550    84.8040 c1         1 NJX      -0.037200
     19 C29         -6.2480    -6.2750    85.5150 c3         1 NJX      -0.124767
     20 C30         -7.4660    -3.8160    86.7100 c3         1 NJX      -0.124767
     21 C31         -4.6670    -4.5990    87.4240 c3         1 NJX      -0.124767
     22 N18         -1.4670    -0.1280    84.4980 n          1 NJX      -0.301000
     23 N20         -2.8200    -1.7040    83.3020 n          1 NJX      -0.374400
     24 O10          4.3300    -2.1220    82.4710 o          1 NJX      -0.596100
     25 O16          5.1270    -4.3860    81.3780 oh         1 NJX      -0.538100
     26 O17          2.4040    -4.3160    85.2300 o          1 NJX      -0.532100
     27 O22         -1.8990    -3.6260    82.5110 o          1 NJX      -0.524000
     28 O23         -3.7310     0.1580    84.2620 o          1 NJX      -0.553000
     29 SI          -5.9380    -4.6010    86.1330 s6         1 NJX      -0.107800
     30 H1           4.0940    -8.1490    83.7130 hc         1 NJX       0.056700
     31 H2           4.9230    -6.8430    84.5600 hc         1 NJX       0.056700
     32 H3          -2.3720     1.1930    85.9390 h1         1 NJX       0.057367
     33 H4          -0.7070     0.7230    86.2970 h1         1 NJX       0.057367
     34 H5          -1.0380     1.8970    84.9850 h1         1 NJX       0.057367
     35 H6           3.1300    -0.4800    84.3200 ha         1 NJX       0.121000
     36 H7           1.0900     0.6750    84.9540 ha         1 NJX       0.126000
     37 H8           0.5700    -4.7420    82.3920 hc         1 NJX       0.058033
     38 H9           0.1240    -3.6120    81.0930 hc         1 NJX       0.058033
     39 H10          1.7920    -3.9470    81.3850 hc         1 NJX       0.058033
     40 H13          4.0470    -6.9160    81.6230 hc         1 NJX       0.080700
     41 H14          5.6740    -6.7120    82.2560 hc         1 NJX       0.080700
     42 H15          2.4280    -6.8620    85.1490 hc         1 NJX       0.072700
     43 H16          2.1090    -6.6750    83.4020 hc         1 NJX       0.072700
     44 H17         -4.8200    -1.3180    82.6620 h1         1 NJX       0.088200
     45 H18         -4.1120    -2.7630    81.9720 h1         1 NJX       0.088200
     46 H19         -6.6300    -6.8890    86.3400 h1         1 NJX       0.058033
     47 H20         -6.9890    -6.2200    84.7080 h1         1 NJX       0.058033
     48 H21         -5.3050    -6.6900    85.1370 h1         1 NJX       0.058033
     49 H22         -7.8630    -4.3980    87.5500 h1         1 NJX       0.058033
     50 H23         -7.2350    -2.7930    87.0310 h1         1 NJX       0.058033
     51 H24         -8.1870    -3.8010    85.8830 h1         1 NJX       0.058033
     52 H25         -5.0290    -5.1910    88.2730 h1         1 NJX       0.058033
     53 H26         -3.7500    -5.0410    87.0140 h1         1 NJX       0.058033
     54 H27         -4.4830    -3.5620    87.7330 h1         1 NJX       0.058033
     55 H28          5.0190    -3.4110    81.5230 ho         1 NJX       0.549000
     56 C25         -4.1750    -2.1750    82.8970 c3         1 NJX       0.177100
     57 C24         -1.3950     0.9870    85.4840 c3         1 NJX       0.084300
@<TRIPOS>BOND
     1     1    15 1   
     2     1    16 1   
     3     1    30 1   
     4     1    31 1   
     5     2    13 1   
     6     2    16 1   
     7     2    26 2   
     8     3     9 1   
     9     3    23 1   
    10     3    27 2   
    11     4    18 3   
    12     4    56 1   
    13     5     6 ar  
    14     5    10 ar  
    15     5    12 1   
    16     6     7 ar  
    17     6    35 1   
    18     7     8 ar  
    19     7    36 1   
    20     8     9 ar  
    21     8    22 1   
    22     9    10 ar  
    23    10    11 1   
    24    11    37 1   
    25    11    38 1   
    26    11    39 1   
    27    12    13 1   
    28    12    24 2   
    29    13    14 2   
    30    14    15 1   
    31    14    25 1   
    32    15    40 1   
    33    15    41 1   
    34    16    42 1   
    35    16    43 1   
    36    17    22 1   
    37    17    23 1   
    38    17    28 2   
    39    18    29 1   
    40    19    29 1   
    41    19    46 1   
    42    19    47 1   
    43    19    48 1   
    44    20    29 1   
    45    20    49 1   
    46    20    50 1   
    47    20    51 1   
    48    21    29 1   
    49    21    52 1   
    50    21    53 1   
    51    21    54 1   
    52    22    57 1   
    53    23    56 1   
    54    25    55 1   
    55    32    57 1   
    56    33    57 1   
    57    34    57 1   
    58    44    56 1   
    59    45    56 1   
@<TRIPOS>SUBSTRUCTURE
     1 NJX         1 TEMP              0 ****  ****    0 ROOT
