@<TRIPOS>MOLECULE
NJX
   57    59     1     0     0
SMALL
abcg2


@<TRIPOS>ATOM
      1 C13          4.5670    -6.6680    84.3720 c6         1 NJX      -0.064400
      2 C15          2.6210    -5.0800    84.1560 c          1 NJX       0.610300
      3 C21         -1.9760    -2.0900    82.8510 c          1 NJX       0.597600
      4 C26         -4.8260    -2.5320    84.0730 c1         1 NJX      -0.120100
      5 C1           1.7650    -2.3920    83.0220 ca         1 NJX      -0.172600
      6 C2           2.0620    -1.2880    83.8110 ca         1 NJX      -0.009000
      7 C3           1.0670    -0.4900    84.3280 ca         1 NJX      -0.183000
      8 C4          -0.2650    -0.7750    84.0300 ca         1 NJX       0.137600
      9 C5          -0.5710    -1.8550    83.1840 ca         1 NJX      -0.210600
     10 C6           0.4510    -2.6880    82.6800 ca         1 NJX       0.080700
     11 C7           0.1790    -3.8790    81.8040 c3         1 NJX      -0.055800
     12 C8           2.9260    -3.1650    82.4890 c          1 NJX       0.639900
     13 C9           3.3340    -4.4390    83.0430 ce         1 NJX      -0.496400
     14 C11          4.4400    -5.0650    82.4690 c2         1 NJX       0.288900
     15 C12          4.9570    -6.3810    82.9330 c6         1 NJX      -0.075200
     16 C14          3.0740    -6.4650    84.5530 c6         1 NJX      -0.183400
     17 C19         -2.6000    -0.2420    84.3640 c          1 NJX       0.626000
     18 C27         -5.2380    -3.3920    84.8180 c1         1 NJX      -0.037200
     19 C29         -5.9840    -6.3120    84.9950 c3         1 NJX      -0.124767
     20 C30         -7.4810    -4.1840    86.6730 c3         1 NJX      -0.124767
     21 C31         -4.5340    -4.8870    87.3250 c3         1 NJX      -0.124767
     22 N18         -1.2720     0.0040    84.5780 n          1 NJX      -0.301000
     23 N20         -2.8920    -1.2370    83.4480 n          1 NJX      -0.374400
     24 O10          3.5540    -2.6400    81.5580 o          1 NJX      -0.596100
     25 O16          5.0860    -4.5430    81.4760 oh         1 NJX      -0.538100
     26 O17          1.6850    -4.5510    84.7240 o          1 NJX      -0.532100
     27 O22         -2.3800    -2.9610    82.1080 o          1 NJX      -0.524000
     28 O23         -3.4860     0.3740    84.9190 o          1 NJX      -0.553000
     29 SI          -5.8220    -4.7150    85.9690 s6         1 NJX      -0.107800
     30 H1           4.8440    -7.6890    84.6320 hc         1 NJX       0.056700
     31 H2           5.1200    -6.0070    85.0440 hc         1 NJX       0.056700
     32 H3          -1.8170     1.5980    85.8020 h1         1 NJX       0.057367
     33 H4          -0.3860     0.7240    86.3460 h1         1 NJX       0.057367
     34 H5          -0.2890     1.8210    84.9530 h1         1 NJX       0.057367
     35 H6           3.0920    -1.0560    84.0510 ha         1 NJX       0.121000
     36 H7           1.3420     0.3400    84.9590 ha         1 NJX       0.126000
     37 H8          -0.4860    -4.5910    82.2880 hc         1 NJX       0.058033
     38 H9          -0.2870    -3.5900    80.8650 hc         1 NJX       0.058033
     39 H10          1.0980    -4.4070    81.5590 hc         1 NJX       0.058033
     40 H13          4.5350    -7.1460    82.2700 hc         1 NJX       0.080700
     41 H14          6.0390    -6.4090    82.7900 hc         1 NJX       0.080700
     42 H15          2.7600    -6.6530    85.5800 hc         1 NJX       0.072700
     43 H16          2.5290    -7.1750    83.9180 hc         1 NJX       0.072700
     44 H17         -4.8680    -0.5770    83.3000 h1         1 NJX       0.088200
     45 H18         -4.4120    -1.8130    82.1470 h1         1 NJX       0.088200
     46 H19         -6.3160    -7.1240    85.6440 h1         1 NJX       0.058033
     47 H20         -6.7110    -6.2140    84.1870 h1         1 NJX       0.058033
     48 H21         -5.0310    -6.6070    84.5550 h1         1 NJX       0.058033
     49 H22         -7.8550    -4.9300    87.3760 h1         1 NJX       0.058033
     50 H23         -7.4030    -3.2350    87.2040 h1         1 NJX       0.058033
     51 H24         -8.2270    -4.0660    85.8860 h1         1 NJX       0.058033
     52 H25         -4.8310    -5.6540    88.0430 h1         1 NJX       0.058033
     53 H26         -3.5640    -5.1720    86.9160 h1         1 NJX       0.058033
     54 H27         -4.4050    -3.9520    87.8730 h1         1 NJX       0.058033
     55 H28          4.6320    -3.6620    81.2600 ho         1 NJX       0.549000
     56 C25         -4.3050    -1.5010    83.1850 c3         1 NJX       0.177100
     57 C24         -0.9160     1.0980    85.4710 c3         1 NJX       0.084300
@<TRIPOS>BOND
     1     1    15 1   
     2     1    16 1   
     3     1    30 1   
     4     1    31 1   
     5     2    13 1   
     6     2    16 1   
     7     2    26 2   
     8     3     9 1   
     9     3    23 1   
    10     3    27 2   
    11     4    18 3   
    12     4    56 1   
    13     5     6 ar  
    14     5    10 ar  
    15     5    12 1   
    16     6     7 ar  
    17     6    35 1   
    18     7     8 ar  
    19     7    36 1   
    20     8     9 ar  
    21     8    22 1   
    22     9    10 ar  
    23    10    11 1   
    24    11    37 1   
    25    11    38 1   
    26    11    39 1   
    27    12    13 1   
    28    12    24 2   
    29    13    14 2   
    30    14    15 1   
    31    14    25 1   
    32    15    40 1   
    33    15    41 1   
    34    16    42 1   
    35    16    43 1   
    36    17    22 1   
    37    17    23 1   
    38    17    28 2   
    39    18    29 1   
    40    19    29 1   
    41    19    46 1   
    42    19    47 1   
    43    19    48 1   
    44    20    29 1   
    45    20    49 1   
    46    20    50 1   
    47    20    51 1   
    48    21    29 1   
    49    21    52 1   
    50    21    53 1   
    51    21    54 1   
    52    22    57 1   
    53    23    56 1   
    54    25    55 1   
    55    32    57 1   
    56    33    57 1   
    57    34    57 1   
    58    44    56 1   
    59    45    56 1   
@<TRIPOS>SUBSTRUCTURE
     1 NJX         1 TEMP              0 ****  ****    0 ROOT
