@<TRIPOS>MOLECULE
NJY
   90    95     1     0     0
SMALL
No Charge or Current Charge


@<TRIPOS>ATOM
      1 CAE         -6.6540   -16.4600    20.6420 c5         1 NJY      -0.133700
      2 CAH         -8.0250   -16.0860    21.2960 c5         1 NJY      -0.069400
      3 CAG         -8.9780   -16.8100    20.3080 c5         1 NJY      -0.101700
      4 CAJ         -8.8820   -18.3510    20.4680 c6         1 NJY       0.166600
      5 OAI         -7.6250   -18.7350    21.0670 os         1 NJY      -0.455000
      6 CAA         -6.4440   -18.0330    20.6120 c5         1 NJY       0.385300
      7 OAB         -6.2530   -18.4160    19.2370 os         1 NJY      -0.475000
      8 CAC         -6.0660   -17.2290    18.4430 c5         1 NJY       0.168600
      9 CAD         -6.8820   -16.1000    19.1470 c5         1 NJY      -0.122700
     10 CAF         -8.4530   -16.2030    18.9630 c5         1 NJY       0.201300
     11 OAK         -8.8340   -17.0640    17.8580 os         1 NJY      -0.456100
     12 CAL         -8.6760   -16.5060    16.6210 c          1 NJY       0.641100
     13 OAM         -8.2960   -15.3720    16.3770 o          1 NJY      -0.535000
     14 NAN         -8.9710   -17.4540    15.6840 ns         1 NJY      -0.505900
     15 CAO         -8.8050   -17.2820    14.2320 c3         1 NJY       0.098700
     16 CAW         -7.7660   -18.3030    13.6920 c3         1 NJY      -0.044100
     17 CBH         -6.4170   -18.2060    14.4000 ca         1 NJY      -0.059300
     18 CBM         -5.6380   -17.0370    14.2860 ca         1 NJY      -0.137000
     19 CBL         -4.4020   -16.9460    14.9450 ca         1 NJY       0.166000
     20 FBT         -3.6640   -15.8200    14.8350 f          1 NJY      -0.181000
     21 CBK         -3.9270   -18.0170    15.7170 ca         1 NJY      -0.155000
     22 CBJ         -4.6960   -19.1880    15.8320 ca         1 NJY      -0.080000
     23 CBI         -5.9360   -19.2800    15.1760 ca         1 NJY      -0.131000
     24 CAT        -10.1840   -17.2880    13.5000 c3         1 NJY       0.155300
     25 OBO        -10.7520   -18.6140    13.4930 oh         1 NJY      -0.667000
     26 CAP        -10.1160   -16.7340    12.0440 c3         1 NJY       0.212800
     27 NAQ         -9.7110   -15.2990    11.9290 n3         1 NJY      -0.730500
     28 CBP        -10.8580   -14.3580    11.7890 c3         1 NJY       0.200800
     29 CBQ        -11.8270   -14.2610    12.9980 c3         1 NJY      -0.061700
     30 CBS        -11.1100   -13.7880    14.2860 c3         1 NJY      -0.092100
     31 CBR        -13.0250   -13.3410    12.6710 c3         1 NJY      -0.092100
     32 SAR         -8.4590   -15.0230    10.7980 sy         1 NJY       1.163600
     33 OAU         -7.3820   -15.9550    11.1470 o          1 NJY      -0.534500
     34 OAV         -8.2140   -13.5770    10.7930 o          1 NJY      -0.534500
     35 CAS         -9.2140   -15.5110     9.2390 ca         1 NJY      -0.322500
     36 CAX         -9.9650   -14.5650     8.5010 ca         1 NJY       0.020000
     37 CBB         -9.0530   -16.8340     8.7430 ca         1 NJY      -0.020000
     38 CBA         -9.6500   -17.2220     7.5220 ca         1 NJY      -0.100000
     39 CAZ        -10.3970   -16.2770     6.8090 ca         1 NJY       0.162400
     40 NBE        -11.0680   -16.4430     5.5910 nc         1 NJY      -0.672100
     41 CAY        -10.5330   -15.0020     7.3020 ca         1 NJY      -0.022900
     42 OBC        -11.2860   -14.3180     6.4270 os         1 NJY      -0.303700
     43 CBD        -11.5700   -15.2180     5.4430 cd         1 NJY       0.795500
     44 NBF        -12.3240   -14.8910     4.3800 nu         1 NJY      -0.883400
     45 CBG        -12.9310   -13.5930     4.1010 c3         1 NJY       0.244500
     46 CBU        -14.3140   -13.5200     4.7750 c3         1 NJY      -0.113100
     47 CBN        -13.0100   -13.3860     2.5790 c3         1 NJY      -0.113100
     48 H1          -5.7990   -15.9400    21.0870 hc         1 NJY       0.076700
     49 H2          -8.1900   -15.0010    21.3150 hc         1 NJY       0.060200
     50 H3          -8.1200   -16.4450    22.3280 hc         1 NJY       0.060200
     51 H4         -10.0280   -16.5470    20.4750 hc         1 NJY       0.069700
     52 H5          -9.6880   -18.7060    21.1260 h1         1 NJY       0.054700
     53 H6          -8.9990   -18.8630    19.5030 h1         1 NJY       0.054700
     54 H7          -5.5730   -18.3250    21.2140 h2         1 NJY       0.090700
     55 H8          -6.3570   -17.4160    17.4030 h1         1 NJY       0.057200
     56 H9          -4.9950   -16.9820    18.4470 h1         1 NJY       0.057200
     57 H10         -6.5170   -15.1010    18.8870 hc         1 NJY       0.087700
     58 H11         -8.8950   -15.2060    18.8240 h1         1 NJY       0.062700
     59 H12         -9.2190   -18.3640    16.0490 hn         1 NJY       0.320500
     60 H13         -8.3810   -16.2820    14.0650 h1         1 NJY       0.103700
     61 H14         -7.6170   -18.1490    12.6190 hc         1 NJY       0.065700
     62 H15         -8.1710   -19.3170    13.7940 hc         1 NJY       0.065700
     63 H16         -5.9860   -16.1990    13.6880 ha         1 NJY       0.157000
     64 H17         -2.9690   -17.9380    16.2230 ha         1 NJY       0.130000
     65 H18         -4.3340   -20.0210    16.4320 ha         1 NJY       0.121000
     66 H19         -6.5260   -20.1890    15.2770 ha         1 NJY       0.109000
     67 H20        -10.8470   -16.6290    14.0710 h1         1 NJY       0.054700
     68 H21        -11.0470   -18.8080    14.4090 ho         1 NJY       0.450000
     69 H22        -11.0970   -16.8810    11.5730 h1         1 NJY       0.063700
     70 H23         -9.4320   -17.3880    11.4900 h1         1 NJY       0.063700
     71 H24        -10.4920   -13.3370    11.6170 h1         1 NJY       0.050200
     72 H25        -11.4440   -14.6300    10.9010 h1         1 NJY       0.050200
     73 H26        -12.2500   -15.2550    13.1820 hc         1 NJY       0.046700
     74 H27        -11.8000   -13.7920    15.1380 hc         1 NJY       0.039867
     75 H28        -10.2650   -14.4400    14.5340 hc         1 NJY       0.039867
     76 H29        -10.7220   -12.7690    14.1620 hc         1 NJY       0.039867
     77 H30        -13.7310   -13.3110    13.5100 hc         1 NJY       0.039867
     78 H31        -12.6890   -12.3160    12.4690 hc         1 NJY       0.039867
     79 H32        -13.5650   -13.7040    11.7890 hc         1 NJY       0.039867
     80 H33        -10.1040   -13.5400     8.8420 ha         1 NJY       0.152000
     81 H34         -8.4670   -17.5650     9.2980 ha         1 NJY       0.133000
     82 H35         -9.5310   -18.2330     7.1400 ha         1 NJY       0.138000
     83 H36        -12.4550   -15.6620     3.7340 hn         1 NJY       0.516000
     84 H37        -12.3040   -12.7900     4.5190 h1         1 NJY       0.074700
     85 H38        -14.2230   -13.6470     5.8600 hc         1 NJY       0.048033
     86 H39        -14.7820   -12.5470     4.5860 hc         1 NJY       0.048033
     87 H40        -14.9800   -14.3020     4.3900 hc         1 NJY       0.048033
     88 H41        -13.4400   -12.4040     2.3480 hc         1 NJY       0.048033
     89 H42        -12.0100   -13.4300     2.1310 hc         1 NJY       0.048033
     90 H43        -13.6370   -14.1530     2.1080 hc         1 NJY       0.048033
@<TRIPOS>BOND
     1     1     2 1   
     2     1     6 1   
     3     1     9 1   
     4     1    48 1   
     5     2     3 1   
     6     2    49 1   
     7     2    50 1   
     8     3     4 1   
     9     3    10 1   
    10     3    51 1   
    11     4     5 1   
    12     4    52 1   
    13     4    53 1   
    14     5     6 1   
    15     6     7 1   
    16     6    54 1   
    17     7     8 1   
    18     8     9 1   
    19     8    55 1   
    20     8    56 1   
    21     9    10 1   
    22     9    57 1   
    23    10    11 1   
    24    10    58 1   
    25    11    12 1   
    26    12    13 2   
    27    12    14 1   
    28    14    15 1   
    29    14    59 1   
    30    15    16 1   
    31    15    24 1   
    32    15    60 1   
    33    16    17 1   
    34    16    61 1   
    35    16    62 1   
    36    17    18 ar  
    37    17    23 ar  
    38    18    19 ar  
    39    18    63 1   
    40    19    20 1   
    41    19    21 ar  
    42    21    22 ar  
    43    21    64 1   
    44    22    23 ar  
    45    22    65 1   
    46    23    66 1   
    47    24    25 1   
    48    24    26 1   
    49    24    67 1   
    50    25    68 1   
    51    26    27 1   
    52    26    69 1   
    53    26    70 1   
    54    27    28 1   
    55    27    32 1   
    56    28    29 1   
    57    28    71 1   
    58    28    72 1   
    59    29    30 1   
    60    29    31 1   
    61    29    73 1   
    62    30    74 1   
    63    30    75 1   
    64    30    76 1   
    65    31    77 1   
    66    31    78 1   
    67    31    79 1   
    68    32    33 2   
    69    32    34 2   
    70    32    35 1   
    71    35    36 ar  
    72    35    37 ar  
    73    36    41 ar  
    74    36    80 1   
    75    37    38 ar  
    76    37    81 1   
    77    38    39 ar  
    78    38    82 1   
    79    39    40 1   
    80    39    41 ar  
    81    40    43 2   
    82    41    42 1   
    83    42    43 1   
    84    43    44 1   
    85    44    45 1   
    86    44    83 1   
    87    45    46 1   
    88    45    47 1   
    89    45    84 1   
    90    46    85 1   
    91    46    86 1   
    92    46    87 1   
    93    47    88 1   
    94    47    89 1   
    95    47    90 1   
@<TRIPOS>SUBSTRUCTURE
     1 NJY         1 TEMP              0 ****  ****    0 ROOT
