@<TRIPOS>MOLECULE
NJY
   90    95     1     0     0
SMALL
abcg2


@<TRIPOS>ATOM
      1 CAE         -6.5430   -15.6170    20.3060 c5         1 NJY      -0.133700
      2 CAH         -7.8910   -15.4920    21.0070 c5         1 NJY      -0.069400
      3 CAG         -8.7020   -16.4680    20.1580 c5         1 NJY      -0.101700
      4 CAJ         -8.2230   -17.8930    20.4790 c6         1 NJY       0.166600
      5 OAI         -6.9230   -17.9190    21.0480 os         1 NJY      -0.455000
      6 CAA         -5.9970   -17.0540    20.4770 c5         1 NJY       0.385300
      7 OAB         -5.6240   -17.5100    19.2010 os         1 NJY      -0.475000
      8 CAC         -5.8480   -16.5170    18.2170 c5         1 NJY       0.168600
      9 CAD         -6.8630   -15.5570    18.8050 c5         1 NJY      -0.122700
     10 CAF         -8.3540   -15.9750    18.7500 c5         1 NJY       0.201300
     11 OAK         -8.6770   -16.9750    17.7960 os         1 NJY      -0.456100
     12 CAL         -8.6790   -16.6290    16.5020 c          1 NJY       0.641100
     13 OAM         -8.4030   -15.5170    16.1000 o          1 NJY      -0.535000
     14 NAN         -9.0300   -17.6790    15.7380 ns         1 NJY      -0.505900
     15 CAO         -8.9700   -17.6630    14.2910 c3         1 NJY       0.098700
     16 CAW         -8.0210   -18.7660    13.8080 c3         1 NJY      -0.044100
     17 CBH         -6.6470   -18.6290    14.4040 ca         1 NJY      -0.059300
     18 CBM         -5.7740   -17.6440    13.9450 ca         1 NJY      -0.137000
     19 CBL         -4.5190   -17.5380    14.5100 ca         1 NJY       0.166000
     20 FBT         -3.6800   -16.5960    14.0440 f          1 NJY      -0.181000
     21 CBK         -4.0860   -18.3680    15.5270 ca         1 NJY      -0.155000
     22 CBJ         -4.9620   -19.3400    15.9860 ca         1 NJY      -0.080000
     23 CBI         -6.2280   -19.4710    15.4310 ca         1 NJY      -0.131000
     24 CAT        -10.3880   -17.7700    13.7030 c3         1 NJY       0.155300
     25 OBO        -10.9190   -19.0710    13.8130 oh         1 NJY      -0.667000
     26 CAP        -10.4790   -17.4070    12.2200 c3         1 NJY       0.212800
     27 NAQ        -10.2610   -15.9810    11.9800 n3         1 NJY      -0.730500
     28 CBP        -11.4790   -15.1850    11.7760 c3         1 NJY       0.200800
     29 CBQ        -12.2760   -14.9410    13.0540 c3         1 NJY      -0.061700
     30 CBS        -11.4620   -14.1770    14.0900 c3         1 NJY      -0.092100
     31 CBR        -13.5490   -14.1820    12.6930 c3         1 NJY      -0.092100
     32 SAR         -8.9570   -15.5260    11.0660 sy         1 NJY       1.163600
     33 OAU         -7.8760   -16.4550    11.3620 o          1 NJY      -0.534500
     34 OAV         -8.7530   -14.1050    11.2960 o          1 NJY      -0.534500
     35 CAS         -9.4170   -15.7390     9.3730 ca         1 NJY      -0.322500
     36 CAX        -10.0010   -14.6620     8.7000 ca         1 NJY       0.020000
     37 CBB         -9.2380   -16.9850     8.7680 ca         1 NJY      -0.020000
     38 CBA         -9.6450   -17.2100     7.4600 ca         1 NJY      -0.100000
     39 CAZ        -10.2390   -16.1580     6.7740 ca         1 NJY       0.162400
     40 NBE        -10.7390   -16.0680     5.5010 nc         1 NJY      -0.672100
     41 CAY        -10.3940   -14.9280     7.4170 ca         1 NJY      -0.022900
     42 OBC        -10.9880   -14.0870     6.5250 os         1 NJY      -0.303700
     43 CBD        -11.1630   -14.8370     5.4140 cd         1 NJY       0.795500
     44 NBF        -11.7190   -14.2510     4.3620 nu         1 NJY      -0.883400
     45 CBG        -12.3580   -12.9360     4.3640 c3         1 NJY       0.244500
     46 CBU        -13.7650   -13.0000     4.9480 c3         1 NJY      -0.113100
     47 CBN        -12.3630   -12.4010     2.9410 c3         1 NJY      -0.113100
     48 H1          -5.7990   -14.8830    20.6160 hc         1 NJY       0.076700
     49 H2          -8.2790   -14.4750    20.9220 hc         1 NJY       0.060200
     50 H3          -7.8650   -15.7470    22.0670 hc         1 NJY       0.060200
     51 H4          -9.7790   -16.4100    20.3300 hc         1 NJY       0.069700
     52 H5          -8.8780   -18.3240    21.2370 h1         1 NJY       0.054700
     53 H6          -8.2760   -18.5430    19.6010 h1         1 NJY       0.054700
     54 H7          -5.1320   -17.0880    21.1450 h2         1 NJY       0.090700
     55 H8          -6.1490   -17.0090    17.2910 h1         1 NJY       0.057200
     56 H9          -4.9200   -15.9740    18.0010 h1         1 NJY       0.057200
     57 H10         -6.7340   -14.5600    18.3870 hc         1 NJY       0.087700
     58 H11         -8.9540   -15.0840    18.5490 h1         1 NJY       0.062700
     59 H12         -9.1760   -18.5650    16.2000 hn         1 NJY       0.320500
     60 H13         -8.5640   -16.6930    14.0040 h1         1 NJY       0.103700
     61 H14         -7.9580   -18.7340    12.7200 hc         1 NJY       0.065700
     62 H15         -8.4340   -19.7420    14.0710 hc         1 NJY       0.065700
     63 H16         -6.0670   -16.9740    13.1460 ha         1 NJY       0.157000
     64 H17         -3.0950   -18.2570    15.9480 ha         1 NJY       0.130000
     65 H18         -4.6500   -20.0030    16.7820 ha         1 NJY       0.121000
     66 H19         -6.8950   -20.2410    15.7990 ha         1 NJY       0.109000
     67 H20        -11.0050   -17.0570    14.2640 h1         1 NJY       0.054700
     68 H21        -11.1240   -19.2500    14.7360 ho         1 NJY       0.450000
     69 H22        -11.4820   -17.6620    11.8670 h1         1 NJY       0.063700
     70 H23         -9.7900   -18.0200    11.6370 h1         1 NJY       0.063700
     71 H24        -11.2070   -14.2090    11.3710 h1         1 NJY       0.050200
     72 H25        -12.1120   -15.6770    11.0290 h1         1 NJY       0.050200
     73 H26        -12.5790   -15.9060    13.4740 hc         1 NJY       0.046700
     74 H27        -12.0460   -14.0190    14.9980 hc         1 NJY       0.039867
     75 H28        -10.5500   -14.7020    14.3730 hc         1 NJY       0.039867
     76 H29        -11.1740   -13.1960    13.7050 hc         1 NJY       0.039867
     77 H30        -14.1560   -14.0030    13.5810 hc         1 NJY       0.039867
     78 H31        -13.3150   -13.2110    12.2510 hc         1 NJY       0.039867
     79 H32        -14.1610   -14.7360    11.9790 hc         1 NJY       0.039867
     80 H33        -10.1290   -13.6880     9.1520 ha         1 NJY       0.152000
     81 H34         -8.7670   -17.7900     9.3140 ha         1 NJY       0.133000
     82 H35         -9.4970   -18.1750     6.9950 ha         1 NJY       0.138000
     83 H36        -11.9160   -14.8650     3.5850 hn         1 NJY       0.516000
     84 H37        -11.7460   -12.2720     4.9760 h1         1 NJY       0.074700
     85 H38        -13.7590   -13.3750     5.9710 hc         1 NJY       0.048033
     86 H39        -14.2130   -12.0060     4.9600 hc         1 NJY       0.048033
     87 H40        -14.4020   -13.6510     4.3470 hc         1 NJY       0.048033
     88 H41        -12.8120   -11.4080     2.9210 hc         1 NJY       0.048033
     89 H42        -11.3530   -12.3260     2.5400 hc         1 NJY       0.048033
     90 H43        -12.9500   -13.0440     2.2820 hc         1 NJY       0.048033
@<TRIPOS>BOND
     1     1     2 1   
     2     1     6 1   
     3     1     9 1   
     4     1    48 1   
     5     2     3 1   
     6     2    49 1   
     7     2    50 1   
     8     3     4 1   
     9     3    10 1   
    10     3    51 1   
    11     4     5 1   
    12     4    52 1   
    13     4    53 1   
    14     5     6 1   
    15     6     7 1   
    16     6    54 1   
    17     7     8 1   
    18     8     9 1   
    19     8    55 1   
    20     8    56 1   
    21     9    10 1   
    22     9    57 1   
    23    10    11 1   
    24    10    58 1   
    25    11    12 1   
    26    12    13 2   
    27    12    14 1   
    28    14    15 1   
    29    14    59 1   
    30    15    16 1   
    31    15    24 1   
    32    15    60 1   
    33    16    17 1   
    34    16    61 1   
    35    16    62 1   
    36    17    18 ar  
    37    17    23 ar  
    38    18    19 ar  
    39    18    63 1   
    40    19    20 1   
    41    19    21 ar  
    42    21    22 ar  
    43    21    64 1   
    44    22    23 ar  
    45    22    65 1   
    46    23    66 1   
    47    24    25 1   
    48    24    26 1   
    49    24    67 1   
    50    25    68 1   
    51    26    27 1   
    52    26    69 1   
    53    26    70 1   
    54    27    28 1   
    55    27    32 1   
    56    28    29 1   
    57    28    71 1   
    58    28    72 1   
    59    29    30 1   
    60    29    31 1   
    61    29    73 1   
    62    30    74 1   
    63    30    75 1   
    64    30    76 1   
    65    31    77 1   
    66    31    78 1   
    67    31    79 1   
    68    32    33 2   
    69    32    34 2   
    70    32    35 1   
    71    35    36 ar  
    72    35    37 ar  
    73    36    41 ar  
    74    36    80 1   
    75    37    38 ar  
    76    37    81 1   
    77    38    39 ar  
    78    38    82 1   
    79    39    40 1   
    80    39    41 ar  
    81    40    43 2   
    82    41    42 1   
    83    42    43 1   
    84    43    44 1   
    85    44    45 1   
    86    44    83 1   
    87    45    46 1   
    88    45    47 1   
    89    45    84 1   
    90    46    85 1   
    91    46    86 1   
    92    46    87 1   
    93    47    88 1   
    94    47    89 1   
    95    47    90 1   
@<TRIPOS>SUBSTRUCTURE
     1 NJY         1 TEMP              0 ****  ****    0 ROOT
