@<TRIPOS>MOLECULE
NJZ
   30    30     1     0     0
SMALL
bcc


@<TRIPOS>ATOM
      1 CAB         -4.8290     2.1060    -0.1260 c2         1 NJZ       0.672600
      2 CAE         -2.3740     1.0130    -0.9130 c3         1 NJZ       0.069500
      3 CAF         -1.1270     0.3090    -0.4670 ca         1 NJZ      -0.083300
      4 CAG         -1.0710    -1.0800    -0.4910 ca         1 NJZ      -0.077000
      5 CAH          0.0810    -1.7180    -0.0580 ca         1 NJZ      -0.021900
      6 CAJ          1.1750    -1.0030     0.4010 ca         1 NJZ      -0.077000
      7 CAK          1.1150     0.3880     0.4350 ca         1 NJZ      -0.083300
      8 CAL          2.3010     1.1740     0.9050 c3         1 NJZ       0.069500
      9 CAN          4.7830     2.2220     0.2150 c2         1 NJZ       0.672600
     10 CAQ         -0.0360     1.0340    -0.0010 ca         1 NJZ      -0.081000
     11 NAA         -5.7130     2.4210     0.8620 nv         1 NJZ      -0.929300
     12 NAC         -5.0500     2.3890    -1.3420 n2         1 NJZ      -0.850600
     13 NAO          5.7520     2.4960    -0.7030 nv         1 NJZ      -0.929300
     14 NAP          4.7650     2.5020     1.4530 n2         1 NJZ      -0.850600
     15 SAD         -3.4370     1.2090     0.5490 ss         1 NJZ      -0.318300
     16 SAM          3.3770     1.4370    -0.5370 ss         1 NJZ      -0.318300
     17 BR1          0.1590    -3.6040    -0.0940 br         1 NJZ      -0.088100
     18 HAE         -2.1430     1.9940    -1.3290 h1         1 NJZ       0.081700
     19 HAF         -2.8970     0.4220    -1.6650 h1         1 NJZ       0.081700
     20 HAG         -1.9210    -1.6470    -0.8490 ha         1 NJZ       0.154000
     21 HAJ          2.0710    -1.5100     0.7360 ha         1 NJZ       0.154000
     22 HAM          2.0040     2.1390     1.3120 h1         1 NJZ       0.081700
     23 HAL          2.8630     0.6380     1.6690 h1         1 NJZ       0.081700
     24 HAQ         -0.0830     2.1160     0.0220 ha         1 NJZ       0.145000
     25 HAA         -5.3650     2.5670     1.7950 hn         1 NJZ       0.416050
     26 HAT         -6.4500     3.0550     0.5960 hn         1 NJZ       0.416050
     27 HAC         -4.3550     2.0250    -1.9790 hn         1 NJZ       0.390400
     28 HAO          5.7970     1.9400    -1.5430 hn         1 NJZ       0.416050
     29 HAU          6.6590     2.7520    -0.3440 hn         1 NJZ       0.416050
     30 HAP          5.6390     2.9300     1.7470 hn         1 NJZ       0.390400
@<TRIPOS>BOND
     1     1    11 1   
     2     1    12 2   
     3     1    15 1   
     4     2     3 1   
     5     2    15 1   
     6     2    18 1   
     7     2    19 1   
     8     3     4 ar  
     9     3    10 ar  
    10     4     5 ar  
    11     4    20 1   
    12     5     6 ar  
    13     5    17 1   
    14     6     7 ar  
    15     6    21 1   
    16     7     8 1   
    17     7    10 ar  
    18     8    16 1   
    19     8    22 1   
    20     8    23 1   
    21     9    13 1   
    22     9    14 2   
    23     9    16 1   
    24    10    24 1   
    25    11    25 1   
    26    11    26 1   
    27    12    27 1   
    28    13    28 1   
    29    13    29 1   
    30    14    30 1   
@<TRIPOS>SUBSTRUCTURE
     1 NJZ         1 TEMP              0 ****  ****    0 ROOT
