@<TRIPOS>MOLECULE
NJZ
   30    30     1     0     0
SMALL
No Charge or Current Charge


@<TRIPOS>ATOM
      1 CAB         -4.9190     2.1220    -0.1480 c2         1 NJZ       0.672600
      2 CAE         -2.3980     1.0220    -0.8720 c3         1 NJZ       0.117400
      3 CAF         -1.1460     0.2790    -0.4270 ca         1 NJZ      -0.083300
      4 CAG         -1.1170    -1.1290    -0.4360 ca         1 NJZ      -0.059000
      5 CAH          0.0400    -1.8110    -0.0240 ca         1 NJZ      -0.021900
      6 CAJ          1.1720    -1.0960     0.4010 ca         1 NJZ      -0.059000
      7 CAK          1.1510     0.3120     0.4180 ca         1 NJZ      -0.083300
      8 CAL          2.3750     1.0900     0.8780 c3         1 NJZ       0.117400
      9 CAN          4.8210     2.3120     0.2240 c2         1 NJZ       0.672600
     10 CAQ         -0.0100     0.9940     0.0020 ca         1 NJZ      -0.063000
     11 NAA         -5.8650     2.3850     0.7590 nv         1 NJZ      -1.039700
     12 NAC         -5.0290     2.5000    -1.3430 n2         1 NJZ      -0.850600
     13 NAO          5.7690     2.6610    -0.6550 nv         1 NJZ      -1.039700
     14 NAP          4.8870     2.5980     1.4470 n2         1 NJZ      -0.850600
     15 SAD         -3.5390     1.2700     0.5620 ss         1 NJZ      -0.366200
     16 SAM          3.5060     1.4190    -0.5460 ss         1 NJZ      -0.366200
     17 Br1          0.0740    -3.7230    -0.0420 br         1 NJZ      -0.088100
     18 HAE         -2.1190     1.9980    -1.2900 h1         1 NJZ       0.081700
     19 HAF         -2.9120     0.4450    -1.6520 h1         1 NJZ       0.081700
     20 HAG         -1.9890    -1.6920    -0.7600 ha         1 NJZ       0.136000
     21 HAJ          2.0630    -1.6340     0.7150 ha         1 NJZ       0.136000
     22 HAM          2.0670     2.0450     1.3230 h1         1 NJZ       0.081700
     23 HAL          2.9150     0.5190     1.6440 h1         1 NJZ       0.081700
     24 HAQ         -0.0290     2.0820     0.0130 ha         1 NJZ       0.127000
     25 HAA         -5.5080     2.4190     1.7060 hn         1 NJZ       0.471250
     26 HAT         -6.4560     3.1620     0.4930 hn         1 NJZ       0.471250
     27 HAC         -4.1900     2.2110    -1.8570 hn         1 NJZ       0.390400
     28 HAO          5.6220     2.2360    -1.5630 hn         1 NJZ       0.471250
     29 HAU          6.7160     2.5690    -0.3080 hn         1 NJZ       0.471250
     30 HAP          5.7400     3.1510     1.5920 hn         1 NJZ       0.390400
@<TRIPOS>BOND
     1     1    11 1   
     2     1    12 2   
     3     1    15 1   
     4     2     3 1   
     5     2    15 1   
     6     2    18 1   
     7     2    19 1   
     8     3     4 ar  
     9     3    10 ar  
    10     4     5 ar  
    11     4    20 1   
    12     5     6 ar  
    13     5    17 1   
    14     6     7 ar  
    15     6    21 1   
    16     7     8 1   
    17     7    10 ar  
    18     8    16 1   
    19     8    22 1   
    20     8    23 1   
    21     9    13 1   
    22     9    14 2   
    23     9    16 1   
    24    10    24 1   
    25    11    25 1   
    26    11    26 1   
    27    12    27 1   
    28    13    28 1   
    29    13    29 1   
    30    14    30 1   
@<TRIPOS>SUBSTRUCTURE
     1 NJZ         1 TEMP              0 ****  ****    0 ROOT
