@<TRIPOS>MOLECULE
NK0
   55    59     1     0     0
SMALL
No Charge or Current Charge


@<TRIPOS>ATOM
      1 C1          -7.5620    -1.0740     1.0570 ca         1 NK0      -0.122500
      2 N1          -2.1230    -1.4460     0.4310 na         1 NK0       0.289900
      3 O1          -4.7110     1.7050    -1.5660 o          1 NK0      -0.532100
      4 C2          -8.6020    -1.0390     0.1140 ca         1 NK0      -0.089000
      5 N2           0.5620    -1.4830     1.0110 nc         1 NK0      -0.286000
      6 O2           5.1290    -1.9440    -0.3520 o          1 NK0      -0.586100
      7 C3          -8.3890    -0.4370    -1.1370 ca         1 NK0      -0.122500
      8 N3          -1.6110    -2.6540     0.8330 nd         1 NK0      -0.300800
      9 C4          -7.1370     0.1200    -1.4480 ca         1 NK0      -0.069500
     10 N4           0.7900     0.7620     0.4490 nu         1 NK0      -0.934900
     11 C5          -6.0740     0.0680    -0.5180 ca         1 NK0      -0.166600
     12 N5           6.8380    -0.4850    -0.0320 ns         1 NK0      -0.483900
     13 C6          -6.3080    -0.5190     0.7480 ca         1 NK0      -0.069500
     14 C7          -4.7410     0.6940    -0.8750 c          1 NK0       0.621900
     15 C8          -3.5120     0.0690    -0.2910 cc         1 NK0      -0.244200
     16 C9          -3.4380    -1.2720     0.0570 cd         1 NK0      -0.124100
     17 C10         -1.3700    -0.3200     0.2970 cd         1 NK0      -0.279000
     18 C11         -2.2100     0.6800    -0.1490 cc         1 NK0      -0.028200
     19 C12         -1.8940     2.1330    -0.4310 c3         1 NK0      -0.040900
     20 C13          0.0180    -0.3580     0.5820 cd         1 NK0       0.451900
     21 C14         -0.3000    -2.5690     1.1060 cc         1 NK0       0.143900
     22 C15          2.1720     1.0290     0.4880 ca         1 NK0       0.274000
     23 C16          3.1300     0.0310     0.2070 ca         1 NK0      -0.043000
     24 C17          4.5170     0.3050     0.2320 ca         1 NK0      -0.139600
     25 C18          4.9360     1.6190     0.5390 ca         1 NK0      -0.093000
     26 C19          3.9920     2.6230     0.8020 ca         1 NK0      -0.107000
     27 C20          2.6130     2.3430     0.7750 ca         1 NK0      -0.078300
     28 C21          1.6250     3.4740     1.0680 c3         1 NK0      -0.052800
     29 C22          5.4980    -0.8090    -0.0760 c          1 NK0       0.613700
     30 C23          7.9080    -1.4070    -0.3000 cx         1 NK0       0.051700
     31 C24          9.2930    -0.8370    -0.4790 cx         1 NK0      -0.137400
     32 C25          8.5360    -1.3690    -1.6710 cx         1 NK0      -0.137400
     33 H1          -7.7310    -1.5250     2.0320 ha         1 NK0       0.116500
     34 H2          -9.5720    -1.4670     0.3550 ha         1 NK0       0.114000
     35 H3          -9.1960    -0.3990    -1.8650 ha         1 NK0       0.116500
     36 H4          -6.9890     0.5840    -2.4220 ha         1 NK0       0.124000
     37 HN4          0.2160     1.5910     0.3530 hn         1 NK0       0.513000
     38 HN5          7.0610     0.4710     0.2100 hn         1 NK0       0.318500
     39 H6          -5.5300    -0.5290     1.5080 ha         1 NK0       0.124000
     40 H9          -4.1590    -2.0820     0.0400 h4         1 NK0       0.244000
     41 H12         -1.2650     2.5600     0.3580 hc         1 NK0       0.051033
     42 H12A        -1.3740     2.2440    -1.3900 hc         1 NK0       0.051033
     43 H12B        -2.7890     2.7600    -0.4540 hc         1 NK0       0.051033
     44 H14          0.2000    -3.4660     1.4500 h5         1 NK0       0.061100
     45 H16          2.7980    -0.9670    -0.0570 ha         1 NK0       0.157000
     46 H18          5.9900     1.8860     0.5710 ha         1 NK0       0.114000
     47 H19          4.3400     3.6290     1.0280 ha         1 NK0       0.118000
     48 H21          0.9330     3.1990     1.8730 hc         1 NK0       0.047367
     49 H21A         2.1380     4.3900     1.3840 hc         1 NK0       0.047367
     50 H21B         1.0360     3.7220     0.1770 hc         1 NK0       0.047367
     51 H23          7.8100    -2.3740     0.1970 h1         1 NK0       0.092700
     52 H24          9.4210     0.2400    -0.3990 hc         1 NK0       0.077200
     53 H24A        10.1300    -1.4230    -0.1070 hc         1 NK0       0.077200
     54 H25          8.8630    -2.3120    -2.1010 hc         1 NK0       0.077200
     55 H25A         8.1500    -0.6510    -2.3900 hc         1 NK0       0.077200
@<TRIPOS>BOND
     1     1     4 ar  
     2     1    13 ar  
     3     1    33 1   
     4     2     8 1   
     5     2    16 1   
     6     2    17 1   
     7     3    14 2   
     8     4     7 ar  
     9     4    34 1   
    10     5    20 2   
    11     5    21 1   
    12     6    29 2   
    13     7     9 ar  
    14     7    35 1   
    15     8    21 2   
    16     9    11 ar  
    17     9    36 1   
    18    10    20 1   
    19    10    22 1   
    20    10    37 1   
    21    11    13 ar  
    22    11    14 1   
    23    12    29 1   
    24    12    30 1   
    25    12    38 1   
    26    13    39 1   
    27    14    15 1   
    28    15    16 2   
    29    15    18 1   
    30    16    40 1   
    31    17    18 2   
    32    17    20 1   
    33    18    19 1   
    34    19    41 1   
    35    19    42 1   
    36    19    43 1   
    37    21    44 1   
    38    22    23 ar  
    39    22    27 ar  
    40    23    24 ar  
    41    23    45 1   
    42    24    25 ar  
    43    24    29 1   
    44    25    26 ar  
    45    25    46 1   
    46    26    27 ar  
    47    26    47 1   
    48    27    28 1   
    49    28    48 1   
    50    28    49 1   
    51    28    50 1   
    52    30    31 1   
    53    30    32 1   
    54    30    51 1   
    55    31    32 1   
    56    31    52 1   
    57    31    53 1   
    58    32    54 1   
    59    32    55 1   
@<TRIPOS>SUBSTRUCTURE
     1 NK0         1 TEMP              0 ****  ****    0 ROOT
