@<TRIPOS>MOLECULE
NK0
   55    59     1     0     0
SMALL
bcc


@<TRIPOS>ATOM
      1 C1          -7.4020    -0.9990     0.9410 ca         1 NK0      -0.140500
      2 N1          -1.9360    -1.2720     0.4840 na         1 NK0       0.239200
      3 O1          -4.6010     1.4500    -1.9310 o          1 NK0      -0.532100
      4 C2          -8.3600    -1.1960    -0.0430 ca         1 NK0      -0.107000
      5 N2           0.6470    -1.1460     1.1930 nc         1 NK0      -0.812000
      6 O2           5.0490    -1.8800     0.0760 o          1 NK0      -0.586100
      7 C3          -8.0940    -0.8220    -1.3560 ca         1 NK0      -0.140500
      8 N3          -1.3900    -2.3710     1.0450 nd         1 NK0      -0.563800
      9 C4          -6.8750    -0.2480    -1.6800 ca         1 NK0      -0.087500
     10 N4           0.8600     1.0100     0.4050 nu         1 NK0      -0.741300
     11 C5          -5.8970    -0.0710    -0.7000 ca         1 NK0      -0.166600
     12 N5           6.7110    -0.3710    -0.0840 ns         1 NK0      -0.550900
     13 C6          -6.1710    -0.4470     0.6140 ca         1 NK0      -0.087500
     14 C7          -4.6110     0.5770    -1.0810 c          1 NK0       0.621900
     15 C8          -3.3800     0.1110    -0.4380 cc         1 NK0      -0.244200
     16 C9          -3.2030    -1.1700     0.0790 cd         1 NK0      -0.074100
     17 C10         -1.2650    -0.0810     0.2540 cd         1 NK0      -0.293600
     18 C11         -2.1520     0.8110    -0.3270 cc         1 NK0      -0.028200
     19 C12         -1.8720     2.2350    -0.6850 c3         1 NK0      -0.040900
     20 C13          0.1140    -0.0850     0.6320 cd         1 NK0       0.780200
     21 C14         -0.1460    -2.2210     1.3670 cc         1 NK0       0.669900
     22 C15          2.2330     1.1670     0.6780 ca         1 NK0       0.135600
     23 C16          3.1510     0.1840     0.3380 ca         1 NK0      -0.061000
     24 C17          4.5080     0.3780     0.5630 ca         1 NK0      -0.139600
     25 C18          4.9350     1.5670     1.1480 ca         1 NK0      -0.111000
     26 C19          4.0130     2.5430     1.4860 ca         1 NK0      -0.125000
     27 C20          2.6510     2.3690     1.2620 ca         1 NK0      -0.078300
     28 C21          1.6660     3.4330     1.6380 c3         1 NK0      -0.052800
     29 C22          5.4390    -0.7250     0.1700 c          1 NK0       0.680700
     30 C23          7.7000    -1.3280    -0.4560 cx         1 NK0       0.051700
     31 C24          8.7540    -0.8960    -1.4220 cx         1 NK0      -0.137400
     32 C25          7.7030    -1.8750    -1.8490 cx         1 NK0      -0.137400
     33 H1          -7.6120    -1.2740     1.9660 ha         1 NK0       0.134500
     34 H2          -9.3140    -1.6380     0.2110 ha         1 NK0       0.132000
     35 H3          -8.8380    -0.9750    -2.1260 ha         1 NK0       0.134500
     36 H4          -6.6740     0.0460    -2.7020 ha         1 NK0       0.142000
     37 HN4          0.3990     1.8050    -0.0070 hn         1 NK0       0.457800
     38 HN5          6.9830     0.5980    -0.0420 hn         1 NK0       0.318500
     39 H6          -5.4360    -0.2870     1.3920 ha         1 NK0       0.142000
     40 H9          -3.8780    -2.0070     0.1490 h4         1 NK0       0.194000
     41 H12         -1.4530     2.7840     0.1620 hc         1 NK0       0.051033
     42 H12A        -1.1750     2.3150    -1.5220 hc         1 NK0       0.051033
     43 H12B        -2.7760     2.7570    -0.9790 hc         1 NK0       0.051033
     44 H14          0.3130    -3.0850     1.8310 h5         1 NK0       0.061100
     45 H16          2.8130    -0.7340    -0.1200 ha         1 NK0       0.175000
     46 H18          5.9800     1.7420     1.3710 ha         1 NK0       0.132000
     47 H19          4.3560     3.4590     1.9490 ha         1 NK0       0.136000
     48 H21          0.8750     3.0380     2.2770 hc         1 NK0       0.047367
     49 H21A         2.1560     4.2440     2.1720 hc         1 NK0       0.047367
     50 H21B         1.1830     3.8700     0.7600 hc         1 NK0       0.047367
     51 H23          8.0040    -2.0020     0.3390 h1         1 NK0       0.092700
     52 H24          8.6940     0.1110    -1.8160 hc         1 NK0       0.077200
     53 H24A         9.7620    -1.2510    -1.2550 hc         1 NK0       0.077200
     54 H25          7.9800    -2.9120    -1.9860 hc         1 NK0       0.077200
     55 H25A         6.9340    -1.5200    -2.5230 hc         1 NK0       0.077200
@<TRIPOS>BOND
     1     1     4 ar  
     2     1    13 ar  
     3     1    33 1   
     4     2     8 1   
     5     2    16 1   
     6     2    17 1   
     7     3    14 2   
     8     4     7 ar  
     9     4    34 1   
    10     5    20 2   
    11     5    21 1   
    12     6    29 2   
    13     7     9 ar  
    14     7    35 1   
    15     8    21 2   
    16     9    11 ar  
    17     9    36 1   
    18    10    20 1   
    19    10    22 1   
    20    10    37 1   
    21    11    13 ar  
    22    11    14 1   
    23    12    29 1   
    24    12    30 1   
    25    12    38 1   
    26    13    39 1   
    27    14    15 1   
    28    15    16 2   
    29    15    18 1   
    30    16    40 1   
    31    17    18 2   
    32    17    20 1   
    33    18    19 1   
    34    19    41 1   
    35    19    42 1   
    36    19    43 1   
    37    21    44 1   
    38    22    23 ar  
    39    22    27 ar  
    40    23    24 ar  
    41    23    45 1   
    42    24    25 ar  
    43    24    29 1   
    44    25    26 ar  
    45    25    46 1   
    46    26    27 ar  
    47    26    47 1   
    48    27    28 1   
    49    28    48 1   
    50    28    49 1   
    51    28    50 1   
    52    30    31 1   
    53    30    32 1   
    54    30    51 1   
    55    31    32 1   
    56    31    52 1   
    57    31    53 1   
    58    32    54 1   
    59    32    55 1   
@<TRIPOS>SUBSTRUCTURE
     1 NK0         1 TEMP              0 ****  ****    0 ROOT
