@<TRIPOS>MOLECULE
NK1
   27    28     1     0     0
SMALL
abcg2


@<TRIPOS>ATOM
      1 O7           1.6330    -3.6440    -3.7050 oh         1 NK1      -0.615000
      2 C7           2.0530    -2.4720    -3.0840 c5         1 NK1       0.138300
      3 C6           1.5190    -2.4970    -1.6520 c5         1 NK1       0.142600
      4 C5           0.0180    -2.3200    -1.4500 c6         1 NK1       0.183300
      5 O5          -0.1800    -2.4730    -0.0640 oh         1 NK1      -0.670000
      6 C4          -0.5170    -0.9820    -1.9520 c6         1 NK1      -0.137400
      7 C3           0.1110     0.2200    -1.2580 c6         1 NK1      -0.077400
      8 C2           1.6110     0.3060    -1.4740 c6         1 NK1       0.129900
      9 S1           2.4300    -1.1740    -0.7990 s4         1 NK1      -0.371900
     10 C9           3.9030    -1.3260    -1.8650 c5         1 NK1       0.068900
     11 C8           3.5900    -2.3160    -3.0040 c5         1 NK1       0.142300
     12 O8           4.2650    -3.5280    -2.8610 oh         1 NK1      -0.600000
     13 HO7          1.7800    -3.5690    -4.6540 ho         1 NK1       0.485000
     14 H7           1.6640    -1.5840    -3.5990 h1         1 NK1       0.051700
     15 H6           1.8310    -3.4190    -1.1500 h1         1 NK1       0.144700
     16 H5          -0.4630    -3.1280    -2.0160 h1         1 NK1       0.098700
     17 HO5         -1.1210    -2.3890     0.1250 ho         1 NK1       0.484000
     18 H41         -1.5970    -0.9670    -1.7930 hc         1 NK1       0.080700
     19 H42         -0.3800    -0.9110    -3.0340 hc         1 NK1       0.080700
     20 H31         -0.3130     1.1390    -1.6640 hc         1 NK1       0.090200
     21 H32         -0.1150     0.2200    -0.1910 hc         1 NK1       0.090200
     22 H21          1.8660     0.3900    -2.5310 h1         1 NK1       0.109200
     23 H22          2.0600     1.1420    -0.9400 h1         1 NK1       0.109200
     24 H91          4.7230    -1.6710    -1.2380 h1         1 NK1       0.129700
     25 H92          4.1410    -0.3240    -2.2180 h1         1 NK1       0.129700
     26 H8           3.9530    -1.8820    -3.9360 h1         1 NK1       0.122700
     27 HO8          3.9150    -4.0280    -2.1150 ho         1 NK1       0.459000
@<TRIPOS>BOND
     1     1     2 1   
     2     1    13 1   
     3     2     3 1   
     4     2    11 1   
     5     2    14 1   
     6     3     4 1   
     7     3     9 1   
     8     3    15 1   
     9     4     5 1   
    10     4     6 1   
    11     4    16 1   
    12     5    17 1   
    13     6     7 1   
    14     6    18 1   
    15     6    19 1   
    16     7     8 1   
    17     7    20 1   
    18     7    21 1   
    19     8     9 1   
    20     8    22 1   
    21     8    23 1   
    22     9    10 1   
    23    10    11 1   
    24    10    24 1   
    25    10    25 1   
    26    11    12 1   
    27    11    26 1   
    28    12    27 1   
@<TRIPOS>SUBSTRUCTURE
     1 NK1         1 TEMP              0 ****  ****    0 ROOT
