@<TRIPOS>MOLECULE
NK1
   27    28     1     0     0
SMALL
No Charge or Current Charge


@<TRIPOS>ATOM
      1 O7           1.6610    -3.6610    -3.7470 oh         1 NK1      -0.615000
      2 C7           2.1050    -2.4860    -3.0520 c5         1 NK1       0.138300
      3 C6           1.5900    -2.4460    -1.5720 c5         1 NK1       0.142600
      4 C5           0.0420    -2.3260    -1.4020 c6         1 NK1       0.183300
      5 O5          -0.3320    -2.5220    -0.0270 oh         1 NK1      -0.670000
      6 C4          -0.5200    -0.9640    -1.8990 c6         1 NK1      -0.137400
      7 C3           0.1010     0.2700    -1.1830 c6         1 NK1      -0.077400
      8 C2           1.6240     0.3810    -1.4130 c6         1 NK1       0.129900
      9 S1           2.5680    -1.0830    -0.7000 s4         1 NK1      -0.371900
     10 C9           3.9260    -1.1960    -2.0170 c5         1 NK1       0.068900
     11 C8           3.6670    -2.4610    -2.8960 c5         1 NK1       0.142300
     12 O8           4.1690    -3.6520    -2.2690 oh         1 NK1      -0.600000
     13 HO7          1.7210    -3.4810    -4.7150 ho         1 NK1       0.485000
     14 H7           1.7720    -1.5910    -3.5960 h1         1 NK1       0.051700
     15 H6           1.8760    -3.3800    -1.0690 h1         1 NK1       0.144700
     16 H5          -0.4150    -3.1200    -2.0160 h1         1 NK1       0.098700
     17 HO5         -1.3160    -2.5310     0.0080 ho         1 NK1       0.484000
     18 H41         -1.6110    -0.9490    -1.7590 hc         1 NK1       0.080700
     19 H42         -0.3710    -0.8740    -2.9840 hc         1 NK1       0.080700
     20 H31         -0.3850     1.1860    -1.5480 hc         1 NK1       0.090200
     21 H32         -0.1040     0.2280    -0.1040 hc         1 NK1       0.090200
     22 H21          1.8430     0.4660    -2.4870 h1         1 NK1       0.109200
     23 H22          2.0150     1.2800    -0.9150 h1         1 NK1       0.109200
     24 H91          4.8980    -1.2570    -1.5090 h1         1 NK1       0.129700
     25 H92          3.9290    -0.2770    -2.6180 h1         1 NK1       0.129700
     26 H8           4.1460    -2.3290    -3.8780 h1         1 NK1       0.122700
     27 HO8          3.7790    -4.4120    -2.7580 ho         1 NK1       0.459000
@<TRIPOS>BOND
     1     1     2 1   
     2     1    13 1   
     3     2     3 1   
     4     2    11 1   
     5     2    14 1   
     6     3     4 1   
     7     3     9 1   
     8     3    15 1   
     9     4     5 1   
    10     4     6 1   
    11     4    16 1   
    12     5    17 1   
    13     6     7 1   
    14     6    18 1   
    15     6    19 1   
    16     7     8 1   
    17     7    20 1   
    18     7    21 1   
    19     8     9 1   
    20     8    22 1   
    21     8    23 1   
    22     9    10 1   
    23    10    11 1   
    24    10    24 1   
    25    10    25 1   
    26    11    12 1   
    27    11    26 1   
    28    12    27 1   
@<TRIPOS>SUBSTRUCTURE
     1 NK1         1 TEMP              0 ****  ****    0 ROOT
