@<TRIPOS>MOLECULE
NK2
   26    27     1     0     0
SMALL
abcg2


@<TRIPOS>ATOM
      1 O7           4.6990     0.5610    -0.2260 oh         1 NK2      -0.599000
      2 C7           4.1940    -0.3490     0.6960 c5         1 NK2       0.181300
      3 C6           3.2380    -1.3610     0.0420 c5         1 NK2       0.128600
      4 C5           1.9290    -0.8240    -0.5120 c6         1 NK2      -0.076400
      5 C4           0.9660    -0.2700     0.5290 c6         1 NK2      -0.096400
      6 C3           0.5490    -1.3250     1.5460 c6         1 NK2      -0.083400
      7 C2           1.7140    -1.8080     2.3920 c6         1 NK2       0.140900
      8 S1           2.9700    -2.6130     1.3450 s4         1 NK2      -0.436900
      9 C9           4.5290    -2.2320     2.2400 c5         1 NK2       0.102900
     10 C8           5.2640    -1.1830     1.4070 c5         1 NK2       0.127300
     11 O8           6.0480    -1.7640     0.4020 oh         1 NK2      -0.657000
     12 HO7          5.3200     0.1020    -0.8060 ho         1 NK2       0.479000
     13 H7           3.6540     0.2350     1.4480 h1         1 NK2       0.094700
     14 H6           3.7620    -1.9120    -0.7440 h1         1 NK2       0.134700
     15 H51          1.4360    -1.6170    -1.0800 hc         1 NK2       0.089700
     16 H52          2.1930    -0.0510    -1.2370 hc         1 NK2       0.089700
     17 H41          0.0790     0.1010     0.0140 hc         1 NK2       0.079200
     18 H42          1.4020     0.5900     1.0450 hc         1 NK2       0.079200
     19 H31         -0.1860    -0.9120     2.2390 hc         1 NK2       0.086700
     20 H32          0.0690    -2.1690     1.0450 hc         1 NK2       0.086700
     21 H21          2.1910    -0.9880     2.9290 h1         1 NK2       0.107700
     22 H22          1.4170    -2.5710     3.1100 h1         1 NK2       0.107700
     23 H91          5.0850    -3.1600     2.3530 h1         1 NK2       0.122700
     24 H92          4.2480    -1.8620     3.2250 h1         1 NK2       0.122700
     25 H8           5.8580    -0.5550     2.0800 h1         1 NK2       0.104700
     26 HO8          6.8820    -2.0660     0.7760 ho         1 NK2       0.485000
@<TRIPOS>BOND
     1     1     2 1   
     2     1    12 1   
     3     2     3 1   
     4     2    10 1   
     5     2    13 1   
     6     3     4 1   
     7     3     8 1   
     8     3    14 1   
     9     4     5 1   
    10     4    15 1   
    11     4    16 1   
    12     5     6 1   
    13     5    17 1   
    14     5    18 1   
    15     6     7 1   
    16     6    19 1   
    17     6    20 1   
    18     7     8 1   
    19     7    21 1   
    20     7    22 1   
    21     8     9 1   
    22     9    10 1   
    23     9    23 1   
    24     9    24 1   
    25    10    11 1   
    26    10    25 1   
    27    11    26 1   
@<TRIPOS>SUBSTRUCTURE
     1 NK2         1 TEMP              0 ****  ****    0 ROOT
