@<TRIPOS>MOLECULE
NK2
   26    27     1     0     0
SMALL
No Charge or Current Charge


@<TRIPOS>ATOM
      1 O7           4.7080     0.6210    -0.2270 oh         1 NK2      -0.599000
      2 C7           4.1700    -0.3070     0.7220 c5         1 NK2       0.181300
      3 C6           3.2380    -1.3740     0.0480 c5         1 NK2       0.128600
      4 C5           1.9040    -0.8390    -0.5440 c6         1 NK2      -0.076400
      5 C4           0.9210    -0.2680     0.5140 c6         1 NK2      -0.096400
      6 C3           0.5080    -1.3210     1.5740 c6         1 NK2      -0.083400
      7 C2           1.7130    -1.8410     2.3880 c6         1 NK2       0.140900
      8 S1           2.9680    -2.7440     1.3110 s4         1 NK2      -0.436900
      9 C9           4.5390    -2.2160     2.2320 c5         1 NK2       0.102900
     10 C8           5.3120    -1.1730     1.3560 c5         1 NK2       0.127300
     11 O8           6.1240    -1.7940     0.3390 oh         1 NK2      -0.657000
     12 HO7          5.4890     0.1680    -0.6220 ho         1 NK2       0.479000
     13 H7           3.6290     0.2380     1.5080 h1         1 NK2       0.094700
     14 H6           3.7800    -1.8480    -0.7840 h1         1 NK2       0.134700
     15 H51          1.4110    -1.6520    -1.0940 hc         1 NK2       0.089700
     16 H52          2.1260    -0.0650    -1.2920 hc         1 NK2       0.089700
     17 H41          0.0190     0.0970     0.0020 hc         1 NK2       0.079200
     18 H42          1.3580     0.6130     1.0060 hc         1 NK2       0.079200
     19 H31         -0.2270    -0.8790     2.2610 hc         1 NK2       0.086700
     20 H32          0.0020    -2.1660     1.0870 hc         1 NK2       0.086700
     21 H21          2.2100    -1.0100     2.9080 h1         1 NK2       0.107700
     22 H22          1.3720    -2.5610     3.1460 h1         1 NK2       0.107700
     23 H91          5.1440    -3.1130     2.4260 h1         1 NK2       0.122700
     24 H92          4.2620    -1.7960     3.2080 h1         1 NK2       0.122700
     25 H8           5.9430    -0.5440     2.0030 h1         1 NK2       0.104700
     26 HO8          6.8880    -2.2300     0.7840 ho         1 NK2       0.485000
@<TRIPOS>BOND
     1     1     2 1   
     2     1    12 1   
     3     2     3 1   
     4     2    10 1   
     5     2    13 1   
     6     3     4 1   
     7     3     8 1   
     8     3    14 1   
     9     4     5 1   
    10     4    15 1   
    11     4    16 1   
    12     5     6 1   
    13     5    17 1   
    14     5    18 1   
    15     6     7 1   
    16     6    19 1   
    17     6    20 1   
    18     7     8 1   
    19     7    21 1   
    20     7    22 1   
    21     8     9 1   
    22     9    10 1   
    23     9    23 1   
    24     9    24 1   
    25    10    11 1   
    26    10    25 1   
    27    11    26 1   
@<TRIPOS>SUBSTRUCTURE
     1 NK2         1 TEMP              0 ****  ****    0 ROOT
