@<TRIPOS>MOLECULE
NK4
  122   125     1     0     0
SMALL
No Charge or Current Charge


@<TRIPOS>ATOM
      1 C10          4.3860     5.5560    -0.3330 c5         1 NK4       0.169300
      2 C13          4.4870     3.9850    -2.1320 c5         1 NK4       0.103300
      3 C15          2.8850     5.4420     0.0880 c3         1 NK4       0.135800
      4 C17          3.8000     0.3410     0.9690 c3         1 NK4       0.116500
      5 C20          1.6120     0.1990     2.1780 c3         1 NK4       0.168800
      6 C21          1.2390    -1.0200     1.2890 c3         1 NK4      -0.056700
      7 C22         -0.2120    -1.5250     1.5530 c3         1 NK4      -0.069400
      8 C26         -5.2890    -0.7760     1.0820 c3         1 NK4      -0.074400
      9 C28         -7.8270    -0.4040     0.8490 c3         1 NK4      -0.074400
     10 C02          5.3040     0.1320    -2.0690 c5         1 NK4       0.125300
     11 C03          5.8640    -1.3000    -2.3870 c5         1 NK4       0.066300
     12 C05          5.9100     0.4760    -0.6490 c5         1 NK4       0.144300
     13 C06          4.9480     1.2210     0.3490 c3         1 NK4       0.212300
     14 C08          5.1510     3.3890    -0.8380 c5         1 NK4       0.349300
     15 C11          4.6220     5.5110    -1.8790 c5         1 NK4       0.144300
     16 C23         -1.3380    -0.5510     1.1250 c3         1 NK4      -0.073400
     17 C25         -3.8770    -0.1790     0.8910 c3         1 NK4      -0.074400
     18 C27         -6.4160     0.1920     0.6580 c3         1 NK4      -0.074400
     19 C29         -8.9540     0.5640     0.4260 c3         1 NK4      -0.074400
     20 C30        -10.3660    -0.0320     0.6170 c3         1 NK4      -0.074400
     21 C31        -11.4930     0.9360     0.1940 c3         1 NK4      -0.074400
     22 C32        -12.9050     0.3400     0.3850 c3         1 NK4      -0.074400
     23 C33        -14.0320     1.3080    -0.0380 c3         1 NK4      -0.074400
     24 C34        -15.4440     0.7120     0.1530 c3         1 NK4      -0.074400
     25 C35        -16.5700     1.6800    -0.2700 c3         1 NK4      -0.074400
     26 C36        -17.9820     1.0840    -0.0790 c3         1 NK4      -0.075400
     27 C37        -19.1090     2.0520    -0.5010 c3         1 NK4      -0.075400
     28 C38        -20.5180     1.4580    -0.3110 c3         1 NK4      -0.088100
     29 C39          2.2580    -2.2200     1.4010 c3         1 NK4      -0.035300
     30 C40          2.3400    -3.0050     0.0570 c          1 NK4       0.715000
     31 C45          4.3500    -0.7640     1.9140 c          1 NK4       0.548000
     32 C48          6.9460    -1.4570    -1.2690 c5         1 NK4       0.322700
     33 C50          8.4110    -3.4640    -1.3200 c          1 NK4       0.624000
     34 C53          6.1490    -3.6720    -0.4160 cc         1 NK4       0.035600
     35 C54          6.3740    -5.0120    -0.1970 cd         1 NK4      -0.407200
     36 C55          7.6470    -5.6490    -0.5320 c          1 NK4       0.593200
     37 N16          2.6840     5.6280     1.5440 n8         1 NK4      -1.000200
     38 N18          2.6460     1.0970     1.5990 n3         1 NK4      -0.728600
     39 N43          3.6180    -1.9780     2.0210 n          1 NK4      -0.369800
     40 N49          7.1700    -2.8960    -0.9740 n          1 NK4      -0.296000
     41 N51          8.5520    -4.7930    -1.0700 ns         1 NK4      -0.471500
     42 O01          5.7700     1.0100    -3.0980 oh         1 NK4      -0.752000
     43 O04          6.3920    -1.3590    -3.7400 oh         1 NK4      -0.717000
     44 O07          4.3200     2.2890    -0.4060 os         1 NK4      -0.481000
     45 O09          5.1430     4.4220     0.1720 os         1 NK4      -0.440000
     46 O12          5.9240     5.9610    -2.2770 oh         1 NK4      -0.712000
     47 O14          5.1300     3.5780    -3.3620 oh         1 NK4      -0.733000
     48 O41          1.9230    -4.1540     0.0320 o          1 NK4      -0.730000
     49 O42          2.9230    -2.4850    -0.8820 o          1 NK4      -0.730000
     50 O46          5.3630    -0.5910     2.5880 o          1 NK4      -0.590000
     51 O47          6.3720    -0.7890    -0.1450 os         1 NK4      -0.422000
     52 O52          9.3240    -2.8300    -1.8230 o          1 NK4      -0.576000
     53 O56          7.8870    -6.8290    -0.3540 o          1 NK4      -0.562000
     54 H101         4.7900     6.4830     0.0930 h1         1 NK4       0.093700
     55 H131         3.4250     3.7040    -2.1650 h1         1 NK4       0.058700
     56 H152         2.3010     6.2080    -0.4400 h1         1 NK4       0.022200
     57 H151         2.4900     4.4560    -0.1930 h1         1 NK4       0.022200
     58 H171         3.4130    -0.2030     0.1030 h1         1 NK4       0.101700
     59 H202         0.7170     0.8030     2.3630 h1         1 NK4       0.028700
     60 H201         1.9320    -0.1750     3.1600 h1         1 NK4       0.028700
     61 H211         1.2450    -0.6650     0.2510 hc         1 NK4       0.067700
     62 H222        -0.3610    -2.4660     1.0090 hc         1 NK4       0.048700
     63 H221        -0.3230    -1.7620     2.6190 hc         1 NK4       0.048700
     64 H241        -2.8330    -2.0720     0.7320 hc         1 NK4       0.036200
     65 H242        -2.8870    -1.4190     2.3700 hc         1 NK4       0.036200
     66 H261        -5.3710    -1.7010     0.4980 hc         1 NK4       0.035700
     67 H262        -5.4250    -1.0480     2.1360 hc         1 NK4       0.035700
     68 H281        -7.9100    -1.3290     0.2650 hc         1 NK4       0.036200
     69 H282        -7.9640    -0.6770     1.9030 hc         1 NK4       0.036200
     70 H021         4.2040     0.1130    -2.0410 h1         1 NK4       0.081700
     71 H031         5.0590    -2.0360    -2.2520 h1         1 NK4       0.128700
     72 H051         6.8030     1.1030    -0.7770 h1         1 NK4       0.048700
     73 H061         5.5480     1.6380     1.1690 h1         1 NK4       0.071700
     74 H081         6.1820     3.0750    -1.0420 h2         1 NK4       0.071700
     75 H111         3.8460     6.0730    -2.4190 h1         1 NK4       0.045700
     76 H191         2.1940     2.6600     2.9770 h1         1 NK4       0.034700
     77 H192         3.5910     1.6590     3.4320 h1         1 NK4       0.034700
     78 H193         3.7360     2.8620     2.1310 h1         1 NK4       0.034700
     79 H231        -1.2740     0.3790     1.7020 hc         1 NK4       0.036200
     80 H232        -1.2020    -0.2830     0.0700 hc         1 NK4       0.036200
     81 H251        -3.7950     0.7460     1.4750 hc         1 NK4       0.035700
     82 H252        -3.7400     0.0930    -0.1630 hc         1 NK4       0.035700
     83 H271        -6.3330     1.1180     1.2420 hc         1 NK4       0.036700
     84 H272        -6.2790     0.4650    -0.3960 hc         1 NK4       0.036700
     85 H292        -8.8720     1.4890     1.0100 hc         1 NK4       0.037200
     86 H291        -8.8180     0.8370    -0.6280 hc         1 NK4       0.037200
     87 H301       -10.4480    -0.9570     0.0330 hc         1 NK4       0.036200
     88 H302       -10.5020    -0.3050     1.6710 hc         1 NK4       0.036200
     89 H312       -11.4110     1.8610     0.7780 hc         1 NK4       0.036700
     90 H311       -11.3570     1.2090    -0.8600 hc         1 NK4       0.036700
     91 H321       -12.9870    -0.5850    -0.1990 hc         1 NK4       0.036700
     92 H322       -13.0410     0.0670     1.4390 hc         1 NK4       0.036700
     93 H331       -13.9490     2.2330     0.5460 hc         1 NK4       0.036700
     94 H332       -13.8950     1.5810    -1.0920 hc         1 NK4       0.036700
     95 H341       -15.5260    -0.2130    -0.4300 hc         1 NK4       0.036700
     96 H342       -15.5800     0.4390     1.2070 hc         1 NK4       0.036700
     97 H351       -16.4880     2.6050     0.3140 hc         1 NK4       0.036700
     98 H352       -16.4340     1.9530    -1.3240 hc         1 NK4       0.036700
     99 H361       -18.0650     0.1590    -0.6620 hc         1 NK4       0.036700
    100 H362       -18.1190     0.8110     0.9750 hc         1 NK4       0.036700
    101 H371       -19.0310     2.9780     0.0820 hc         1 NK4       0.036200
    102 H372       -18.9770     2.3250    -1.5560 hc         1 NK4       0.036200
    103 H383       -20.6400     0.5480    -0.9100 hc         1 NK4       0.030367
    104 H381       -20.6940     1.2060     0.7420 hc         1 NK4       0.030367
    105 H382       -21.2820     2.1790    -0.6230 hc         1 NK4       0.030367
    106 H391         1.7760    -2.9180     2.0980 h1         1 NK4       0.048700
    107 H443         5.2230    -3.2240     2.6350 h1         1 NK4       0.034033
    108 H441         4.0500    -2.8080     3.9210 h1         1 NK4       0.034033
    109 H442         3.6250    -4.0090     2.6660 h1         1 NK4       0.034033
    110 H481         7.8930    -0.9800    -1.5520 h2         1 NK4       0.096700
    111 H531         5.2430    -3.1200    -0.1760 h4         1 NK4       0.282000
    112 H541         5.6260    -5.6650     0.2390 ha         1 NK4       0.224000
    113 H161         1.7100     5.4000     1.7800 hn         1 NK4       0.412000
    114 H1           3.2250     4.9050     2.0320 hn         1 NK4       0.412000
    115 H511         9.4430    -5.1930    -1.3170 hn         1 NK4       0.327500
    116 H011         6.1610     0.3410    -3.7320 ho         1 NK4       0.525000
    117 H041         6.5940    -2.3050    -3.9480 ho         1 NK4       0.519000
    118 H121         6.1650     5.3280    -2.9980 ho         1 NK4       0.519000
    119 H141         5.3160     2.5900    -3.2770 ho         1 NK4       0.547000
    120 C19          3.0670     2.1210     2.5850 c3         1 NK4       0.150100
    121 C44          4.1600    -3.0710     2.8610 c3         1 NK4       0.092300
    122 C24         -2.7500    -1.1470     1.3150 c3         1 NK4      -0.074400
@<TRIPOS>BOND
     1     1     3 1   
     2     1    15 1   
     3     1    45 1   
     4     1    54 1   
     5     2    14 1   
     6     2    15 1   
     7     2    47 1   
     8     2    55 1   
     9     3    37 1   
    10     3    56 1   
    11     3    57 1   
    12     4    13 1   
    13     4    31 1   
    14     4    38 1   
    15     4    58 1   
    16     5     6 1   
    17     5    38 1   
    18     5    59 1   
    19     5    60 1   
    20     6     7 1   
    21     6    29 1   
    22     6    61 1   
    23     7    16 1   
    24     7    62 1   
    25     7    63 1   
    26     8    17 1   
    27     8    18 1   
    28     8    66 1   
    29     8    67 1   
    30     9    18 1   
    31     9    19 1   
    32     9    68 1   
    33     9    69 1   
    34    10    11 1   
    35    10    12 1   
    36    10    42 1   
    37    10    70 1   
    38    11    32 1   
    39    11    43 1   
    40    11    71 1   
    41    12    13 1   
    42    12    51 1   
    43    12    72 1   
    44    13    44 1   
    45    13    73 1   
    46    14    44 1   
    47    14    45 1   
    48    14    74 1   
    49    15    46 1   
    50    15    75 1   
    51    16    79 1   
    52    16    80 1   
    53    16   122 1   
    54    17    81 1   
    55    17    82 1   
    56    17   122 1   
    57    18    83 1   
    58    18    84 1   
    59    19    20 1   
    60    19    85 1   
    61    19    86 1   
    62    20    21 1   
    63    20    87 1   
    64    20    88 1   
    65    21    22 1   
    66    21    89 1   
    67    21    90 1   
    68    22    23 1   
    69    22    91 1   
    70    22    92 1   
    71    23    24 1   
    72    23    93 1   
    73    23    94 1   
    74    24    25 1   
    75    24    95 1   
    76    24    96 1   
    77    25    26 1   
    78    25    97 1   
    79    25    98 1   
    80    26    27 1   
    81    26    99 1   
    82    26   100 1   
    83    27    28 1   
    84    27   101 1   
    85    27   102 1   
    86    28   103 1   
    87    28   104 1   
    88    28   105 1   
    89    29    30 1   
    90    29    39 1   
    91    29   106 1   
    92    30    48 1   
    93    30    49 1   
    94    31    39 1   
    95    31    50 2   
    96    32    40 1   
    97    32    51 1   
    98    32   110 1   
    99    33    40 1   
   100    33    41 1   
   101    33    52 2   
   102    34    35 2   
   103    34    40 1   
   104    34   111 1   
   105    35    36 1   
   106    35   112 1   
   107    36    41 1   
   108    36    53 2   
   109    37   113 1   
   110    37   114 1   
   111    38   120 1   
   112    39   121 1   
   113    41   115 1   
   114    42   116 1   
   115    43   117 1   
   116    46   118 1   
   117    47   119 1   
   118    64   122 1   
   119    65   122 1   
   120    76   120 1   
   121    77   120 1   
   122    78   120 1   
   123   107   121 1   
   124   108   121 1   
   125   109   121 1   
@<TRIPOS>SUBSTRUCTURE
     1 NK4         1 TEMP              0 ****  ****    0 ROOT
