@<TRIPOS>MOLECULE
NK4
  122   125     1     0     0
SMALL
abcg2


@<TRIPOS>ATOM
      1 C10          2.9550     4.9980    -0.1550 c5         1 NK4       0.169300
      2 C13          4.0310     3.8570    -1.8960 c5         1 NK4       0.103300
      3 C15          1.5740     4.3400    -0.1700 c3         1 NK4       0.135800
      4 C17          3.7830     0.0850     0.9170 c3         1 NK4       0.116500
      5 C20          1.7540    -0.0010     2.2900 c3         1 NK4       0.168800
      6 C21          1.3270    -1.1220     1.3570 c3         1 NK4      -0.056700
      7 C22         -0.0960    -1.5720     1.7080 c3         1 NK4      -0.069400
      8 C26         -5.0700    -0.5660     1.3270 c3         1 NK4      -0.074400
      9 C28         -7.5610    -0.1250     1.0550 c3         1 NK4      -0.074400
     10 C02          4.9870     0.0720    -2.1520 c5         1 NK4       0.125300
     11 C03          5.5820    -1.3250    -2.4210 c5         1 NK4       0.066300
     12 C05          5.6890     0.5040    -0.8490 c5         1 NK4       0.144300
     13 C06          4.7810     1.0470     0.2640 c3         1 NK4       0.212300
     14 C08          4.4870     3.3150    -0.5250 c5         1 NK4       0.349300
     15 C11          3.4870     5.2450    -1.5610 c5         1 NK4       0.144300
     16 C23         -1.1680    -0.6450     1.1480 c3         1 NK4      -0.073400
     17 C25         -3.6560    -0.1810     0.9110 c3         1 NK4      -0.074400
     18 C27         -6.1480     0.2610     0.6370 c3         1 NK4      -0.074400
     19 C29         -8.6430     0.6800     0.3450 c3         1 NK4      -0.074400
     20 C30        -10.0540     0.2880     0.7660 c3         1 NK4      -0.074400
     21 C31        -11.1420     1.0780     0.0480 c3         1 NK4      -0.074400
     22 C32        -12.5500     0.6790     0.4710 c3         1 NK4      -0.074400
     23 C33        -13.6430     1.4570    -0.2510 c3         1 NK4      -0.074400
     24 C34        -15.0490     1.0510     0.1750 c3         1 NK4      -0.074400
     25 C35        -16.1470     1.8180    -0.5490 c3         1 NK4      -0.074400
     26 C36        -17.5500     1.4050    -0.1210 c3         1 NK4      -0.075400
     27 C37        -18.6530     2.1660    -0.8470 c3         1 NK4      -0.075400
     28 C38        -20.0490     1.7420    -0.4110 c3         1 NK4      -0.088100
     29 C39          2.3200    -2.3220     1.4080 c3         1 NK4      -0.035300
     30 C40          2.4570    -2.9870     0.0170 c          1 NK4       0.715000
     31 C45          4.4230    -1.0240     1.7370 c          1 NK4       0.548000
     32 C48          6.8680    -1.2730    -1.6000 c5         1 NK4       0.322700
     33 C50          8.6910    -2.8990    -1.5870 c          1 NK4       0.624000
     34 C53          6.6560    -3.3830    -0.4160 cc         1 NK4       0.035600
     35 C54          7.0990    -4.5720     0.0220 cd         1 NK4      -0.407200
     36 C55          8.4200    -5.0220    -0.3360 c          1 NK4       0.593200
     37 N16          1.2720     3.7300     1.1130 n8         1 NK4      -1.000200
     38 N18          2.8480     0.8150     1.7760 n3         1 NK4      -0.728600
     39 N43          3.6060    -2.0560     2.0470 n          1 NK4      -0.369800
     40 N49          7.4070    -2.5560    -1.2080 n          1 NK4      -0.296000
     41 N51          9.1110    -4.1200    -1.1320 ns         1 NK4      -0.471500
     42 O01          5.3360     0.9860    -3.1690 oh         1 NK4      -0.752000
     43 O04          5.8540    -1.5710    -3.7710 oh         1 NK4      -0.717000
     44 O07          3.9890     2.0220    -0.3820 os         1 NK4      -0.481000
     45 O09          3.9490     4.1700     0.4410 os         1 NK4      -0.440000
     46 O12          4.5030     6.2130    -1.4970 oh         1 NK4      -0.712000
     47 O14          5.0380     3.9000    -2.8630 oh         1 NK4      -0.733000
     48 O41          1.3980    -3.3850    -0.4970 o          1 NK4      -0.730000
     49 O42          3.6010    -3.0660    -0.4750 o          1 NK4      -0.730000
     50 O46          5.5460    -0.9100     2.2110 o          1 NK4      -0.590000
     51 O47          6.5060    -0.5750    -0.4410 os         1 NK4      -0.422000
     52 O52          9.4000    -2.1900    -2.2710 o          1 NK4      -0.576000
     53 O56          8.9350    -6.0760    -0.0090 o          1 NK4      -0.562000
     54 H101         2.9080     5.9170     0.4360 h1         1 NK4       0.093700
     55 H131         3.1910     3.2360    -2.2350 h1         1 NK4       0.058700
     56 H152         0.8450     5.1300    -0.3690 h1         1 NK4       0.022200
     57 H151         1.4910     3.6380    -1.0110 h1         1 NK4       0.022200
     58 H171         3.2060    -0.3510     0.1000 h1         1 NK4       0.101700
     59 H202         0.9080     0.6680     2.4770 h1         1 NK4       0.028700
     60 H201         2.0070    -0.4450     3.2660 h1         1 NK4       0.028700
     61 H211         1.2820    -0.7250     0.3370 hc         1 NK4       0.067700
     62 H222        -0.2620    -2.5750     1.3100 hc         1 NK4       0.048700
     63 H221        -0.1950    -1.6500     2.7980 hc         1 NK4       0.048700
     64 H241        -2.7510    -2.0920     1.3030 hc         1 NK4       0.036200
     65 H242        -2.6710    -0.9790     2.6520 hc         1 NK4       0.036200
     66 H261        -5.2330    -1.6270     1.1090 hc         1 NK4       0.035700
     67 H262        -5.1700    -0.4620     2.4130 hc         1 NK4       0.035700
     68 H281        -7.7160    -1.1920     0.8580 hc         1 NK4       0.036200
     69 H282        -7.6660     0.0010     2.1380 hc         1 NK4       0.036200
     70 H021         3.9000     0.0140    -2.0460 h1         1 NK4       0.081700
     71 H031         4.9040    -2.0700    -1.9960 h1         1 NK4       0.128700
     72 H051         6.3450     1.3450    -1.1190 h1         1 NK4       0.048700
     73 H061         5.4240     1.4980     1.0280 h1         1 NK4       0.071700
     74 H081         5.5800     3.3300    -0.4210 h2         1 NK4       0.071700
     75 H111         2.6870     5.5430    -2.2510 h1         1 NK4       0.045700
     76 H191         2.6640     2.0890     3.3980 h1         1 NK4       0.034700
     77 H192         3.9740     0.9260     3.5990 h1         1 NK4       0.034700
     78 H193         4.1460     2.3120     2.5010 h1         1 NK4       0.034700
     79 H231        -0.9820     0.3890     1.4560 hc         1 NK4       0.036200
     80 H232        -1.0970    -0.6500     0.0550 hc         1 NK4       0.036200
     81 H251        -3.4810     0.8730     1.1560 hc         1 NK4       0.035700
     82 H252        -3.5660    -0.2570    -0.1780 hc         1 NK4       0.035700
     83 H271        -5.9860     1.3230     0.8480 hc         1 NK4       0.036700
     84 H272        -6.0480     0.1490    -0.4490 hc         1 NK4       0.036700
     85 H292        -8.4910     1.7480     0.5400 hc         1 NK4       0.037200
     86 H291        -8.5390     0.5510    -0.7380 hc         1 NK4       0.037200
     87 H301       -10.2010    -0.7810     0.5810 hc         1 NK4       0.036200
     88 H302       -10.1610     0.4250     1.8480 hc         1 NK4       0.036200
     89 H312       -10.9980     2.1490     0.2320 hc         1 NK4       0.036700
     90 H311       -11.0360     0.9400    -1.0340 hc         1 NK4       0.036700
     91 H321       -12.6890    -0.3930     0.2930 hc         1 NK4       0.036700
     92 H322       -12.6570     0.8230     1.5520 hc         1 NK4       0.036700
     93 H331       -13.5070     2.5290    -0.0730 hc         1 NK4       0.036700
     94 H332       -13.5370     1.3130    -1.3320 hc         1 NK4       0.036700
     95 H341       -15.1810    -0.0230     0.0020 hc         1 NK4       0.036700
     96 H342       -15.1550     1.1980     1.2560 hc         1 NK4       0.036700
     97 H351       -16.0170     2.8920    -0.3760 hc         1 NK4       0.036700
     98 H352       -16.0400     1.6710    -1.6300 hc         1 NK4       0.036700
     99 H361       -17.6780     0.3310    -0.2920 hc         1 NK4       0.036700
    100 H362       -17.6570     1.5540     0.9590 hc         1 NK4       0.036700
    101 H371       -18.5260     3.2400    -0.6750 hc         1 NK4       0.036200
    102 H372       -18.5450     2.0180    -1.9260 hc         1 NK4       0.036200
    103 H383       -20.2150     0.6800    -0.6010 hc         1 NK4       0.030367
    104 H381       -20.1950     1.9110     0.6580 hc         1 NK4       0.030367
    105 H382       -20.8230     2.2980    -0.9410 hc         1 NK4       0.030367
    106 H391         1.8450    -3.0630     2.0570 h1         1 NK4       0.048700
    107 H443         4.7070    -3.8510     2.2310 h1         1 NK4       0.034033
    108 H441         4.8300    -2.7460     3.6050 h1         1 NK4       0.034033
    109 H442         3.3500    -3.6640     3.3440 h1         1 NK4       0.034033
    110 H481         7.6480    -0.7510    -2.1640 h2         1 NK4       0.096700
    111 H531         5.6590    -3.0370    -0.1700 h4         1 NK4       0.282000
    112 H541         6.4740    -5.1960     0.6420 ha         1 NK4       0.224000
    113 H161         0.3060     3.4290     1.1080 hn         1 NK4       0.412000
    114 H1           1.8260     2.8840     1.2100 hn         1 NK4       0.412000
    115 H511        10.0480    -4.3830    -1.4140 hn         1 NK4       0.327500
    116 H011         5.2330     0.5420    -4.0210 ho         1 NK4       0.525000
    117 H041         5.2160    -2.2070    -4.1060 ho         1 NK4       0.519000
    118 H121         5.0000     6.1850    -2.3210 ho         1 NK4       0.519000
    119 H141         5.2250     2.9850    -3.1230 ho         1 NK4       0.547000
    120 C19          3.4530     1.5570     2.8650 c3         1 NK4       0.150100
    121 C44          4.1570    -3.1320     2.8440 c3         1 NK4       0.092300
    122 C24         -2.5800    -1.0410     1.5620 c3         1 NK4      -0.074400
@<TRIPOS>BOND
     1     1     3 1   
     2     1    15 1   
     3     1    45 1   
     4     1    54 1   
     5     2    14 1   
     6     2    15 1   
     7     2    47 1   
     8     2    55 1   
     9     3    37 1   
    10     3    56 1   
    11     3    57 1   
    12     4    13 1   
    13     4    31 1   
    14     4    38 1   
    15     4    58 1   
    16     5     6 1   
    17     5    38 1   
    18     5    59 1   
    19     5    60 1   
    20     6     7 1   
    21     6    29 1   
    22     6    61 1   
    23     7    16 1   
    24     7    62 1   
    25     7    63 1   
    26     8    17 1   
    27     8    18 1   
    28     8    66 1   
    29     8    67 1   
    30     9    18 1   
    31     9    19 1   
    32     9    68 1   
    33     9    69 1   
    34    10    11 1   
    35    10    12 1   
    36    10    42 1   
    37    10    70 1   
    38    11    32 1   
    39    11    43 1   
    40    11    71 1   
    41    12    13 1   
    42    12    51 1   
    43    12    72 1   
    44    13    44 1   
    45    13    73 1   
    46    14    44 1   
    47    14    45 1   
    48    14    74 1   
    49    15    46 1   
    50    15    75 1   
    51    16    79 1   
    52    16    80 1   
    53    16   122 1   
    54    17    81 1   
    55    17    82 1   
    56    17   122 1   
    57    18    83 1   
    58    18    84 1   
    59    19    20 1   
    60    19    85 1   
    61    19    86 1   
    62    20    21 1   
    63    20    87 1   
    64    20    88 1   
    65    21    22 1   
    66    21    89 1   
    67    21    90 1   
    68    22    23 1   
    69    22    91 1   
    70    22    92 1   
    71    23    24 1   
    72    23    93 1   
    73    23    94 1   
    74    24    25 1   
    75    24    95 1   
    76    24    96 1   
    77    25    26 1   
    78    25    97 1   
    79    25    98 1   
    80    26    27 1   
    81    26    99 1   
    82    26   100 1   
    83    27    28 1   
    84    27   101 1   
    85    27   102 1   
    86    28   103 1   
    87    28   104 1   
    88    28   105 1   
    89    29    30 1   
    90    29    39 1   
    91    29   106 1   
    92    30    48 1   
    93    30    49 1   
    94    31    39 1   
    95    31    50 2   
    96    32    40 1   
    97    32    51 1   
    98    32   110 1   
    99    33    40 1   
   100    33    41 1   
   101    33    52 2   
   102    34    35 2   
   103    34    40 1   
   104    34   111 1   
   105    35    36 1   
   106    35   112 1   
   107    36    41 1   
   108    36    53 2   
   109    37   113 1   
   110    37   114 1   
   111    38   120 1   
   112    39   121 1   
   113    41   115 1   
   114    42   116 1   
   115    43   117 1   
   116    46   118 1   
   117    47   119 1   
   118    64   122 1   
   119    65   122 1   
   120    76   120 1   
   121    77   120 1   
   122    78   120 1   
   123   107   121 1   
   124   108   121 1   
   125   109   121 1   
@<TRIPOS>SUBSTRUCTURE
     1 NK4         1 TEMP              0 ****  ****    0 ROOT
