@<TRIPOS>MOLECULE
NK5
   23    24     1     0     0
SMALL
No Charge or Current Charge


@<TRIPOS>ATOM
      1 C4           1.9540     0.0660    -0.0790 ca         1 NK5      -0.007200
      2 C2           4.2380     0.8610     0.2890 ca         1 NK5      -0.097000
      3 C3           2.8550     1.1080     0.2320 ca         1 NK5      -0.099500
      4 C1           4.7340    -0.4290     0.0360 ca         1 NK5      -0.100000
      5 C6           3.8460    -1.4720    -0.2760 ca         1 NK5      -0.097000
      6 C16         -0.3840    -0.5430     0.3310 cc         1 NK5      -0.124000
      7 C17         -2.8970    -0.4380     0.3110 c          1 NK5       0.547600
      8 C5           2.4630    -1.2270    -0.3330 ca         1 NK5      -0.099500
      9 N12          0.5770     0.3100    -0.1330 na         1 NK5       0.221000
     10 N13          0.0820     1.4160    -0.7470 nc         1 NK5      -0.182800
     11 N14         -1.2190     1.3030    -0.6610 nd         1 NK5      -0.350000
     12 C15         -1.5410     0.1130    -0.0080 cd         1 NK5       0.123500
     13 N18         -3.9320     0.3890    -0.1160 ns         1 NK5      -0.367400
     14 O19         -5.3010    -0.0840    -0.1520 oh         1 NK5      -0.425100
     15 O20         -3.0950    -1.5000     0.8930 o          1 NK5      -0.576100
     16 H1           4.9250     1.6690     0.5310 ha         1 NK5       0.124000
     17 H2           2.4850     2.1110     0.4350 ha         1 NK5       0.135000
     18 H3           5.8040    -0.6190     0.0800 ha         1 NK5       0.123000
     19 H4           4.2300    -2.4700    -0.4750 ha         1 NK5       0.124000
     20 H5          -0.1890    -1.4770     0.8400 h4         1 NK5       0.188000
     21 H6           1.7900    -2.0450    -0.5840 ha         1 NK5       0.135000
     22 H7          -3.7060     1.1830    -0.7170 hn         1 NK5       0.357500
     23 H8          -5.8050     0.6320     0.3020 ho         1 NK5       0.447000
@<TRIPOS>BOND
     1     1     3 ar  
     2     1     8 ar  
     3     1     9 1   
     4     2     3 ar  
     5     2     4 ar  
     6     2    16 1   
     7     3    17 1   
     8     4     5 ar  
     9     4    18 1   
    10     5     8 ar  
    11     5    19 1   
    12     6     9 1   
    13     6    12 2   
    14     6    20 1   
    15     7    12 1   
    16     7    13 1   
    17     7    15 2   
    18     8    21 1   
    19     9    10 1   
    20    10    11 2   
    21    11    12 1   
    22    13    14 1   
    23    13    22 1   
    24    14    23 1   
@<TRIPOS>SUBSTRUCTURE
     1 NK5         1 TEMP              0 ****  ****    0 ROOT
