@<TRIPOS>MOLECULE
NK5
   23    24     1     0     0
SMALL
abcg2


@<TRIPOS>ATOM
      1 C4           1.9690     0.0180    -0.0560 ca         1 NK5      -0.007200
      2 C2           4.1790     0.9000     0.1830 ca         1 NK5      -0.097000
      3 C3           2.8090     1.1070     0.1400 ca         1 NK5      -0.099500
      4 C1           4.7060    -0.3770     0.0430 ca         1 NK5      -0.100000
      5 C6           3.8530    -1.4560    -0.1490 ca         1 NK5      -0.097000
      6 C16         -0.4090    -0.6450     0.2240 cc         1 NK5      -0.124000
      7 C17         -2.9440    -0.4120     0.1610 c          1 NK5       0.547600
      8 C5           2.4810    -1.2630    -0.2060 ca         1 NK5      -0.099500
      9 N12          0.5680     0.2160    -0.1040 na         1 NK5       0.221000
     10 N13          0.0600     1.3730    -0.5260 nc         1 NK5      -0.182800
     11 N14         -1.2140     1.2840    -0.4770 nd         1 NK5      -0.350000
     12 C15         -1.5580     0.0580    -0.0220 cd         1 NK5       0.123500
     13 N18         -3.8690     0.5100    -0.1570 ns         1 NK5      -0.367400
     14 O19         -5.1780     0.1440    -0.2220 oh         1 NK5      -0.425100
     15 O20         -3.1880    -1.5260     0.5870 o          1 NK5      -0.576100
     16 H1           4.8370     1.7450     0.3370 ha         1 NK5       0.124000
     17 H2           2.4020     2.1000     0.2660 ha         1 NK5       0.135000
     18 H3           5.7760    -0.5300     0.0810 ha         1 NK5       0.123000
     19 H4           4.2540    -2.4540    -0.2670 ha         1 NK5       0.124000
     20 H5          -0.2310    -1.6340     0.6080 h4         1 NK5       0.188000
     21 H6           1.8270    -2.1070    -0.3810 ha         1 NK5       0.135000
     22 H7          -3.6310     1.3520    -0.6650 hn         1 NK5       0.357500
     23 H8          -5.5840     0.4530     0.5990 ho         1 NK5       0.447000
@<TRIPOS>BOND
     1     1     3 ar  
     2     1     8 ar  
     3     1     9 1   
     4     2     3 ar  
     5     2     4 ar  
     6     2    16 1   
     7     3    17 1   
     8     4     5 ar  
     9     4    18 1   
    10     5     8 ar  
    11     5    19 1   
    12     6     9 1   
    13     6    12 2   
    14     6    20 1   
    15     7    12 1   
    16     7    13 1   
    17     7    15 2   
    18     8    21 1   
    19     9    10 1   
    20    10    11 2   
    21    11    12 1   
    22    13    14 1   
    23    13    22 1   
    24    14    23 1   
@<TRIPOS>SUBSTRUCTURE
     1 NK5         1 TEMP              0 ****  ****    0 ROOT
