@<TRIPOS>MOLECULE
NK6
   59    61     1     0     0
SMALL
abcg2


@<TRIPOS>ATOM
      1 C1          14.0880    16.6760    -0.1950 c6         1 NK6       0.153500
      2 C2          14.7080    17.3120    -1.4340 c6         1 NK6      -0.088900
      3 C3          16.0810    17.9030    -1.1330 c6         1 NK6      -0.074400
      4 C4          16.0480    18.9930    -0.0370 c6         1 NK6       0.191200
      5 C5          17.8890    20.3050     1.1220 ca         1 NK6       0.331000
      6 C6          17.0640    21.2910     1.6870 ca         1 NK6      -0.190000
      7 C7          17.6080    22.3300     2.4320 ca         1 NK6      -0.052000
      8 C8          18.9760    22.3950     2.6390 ca         1 NK6       0.081000
      9 C9          19.8130    21.4150     2.1170 ca         1 NK6      -0.052000
     10 C10         19.2730    20.3840     1.3720 ca         1 NK6      -0.190000
     11 C11         15.2900    20.2450    -0.5770 c          1 NK6       0.605100
     12 C12         15.0820    22.1630    -2.0500 c6         1 NK6       0.099500
     13 C13         15.8410    23.4290    -1.6660 c6         1 NK6      -0.096400
     14 C14         17.2610    23.4180    -2.2370 c6         1 NK6      -0.081700
     15 C15         18.0260    24.6510    -1.7530 c3         1 NK6       0.100000
     16 C16         20.4900    24.5340    -1.6150 c          1 NK6       0.591100
     17 C17         21.7680    24.6190    -2.4340 c3         1 NK6       0.035600
     18 C18         17.9740    22.1150    -1.8670 c6         1 NK6      -0.096400
     19 C19         17.1360    20.8830    -2.2090 c6         1 NK6       0.099500
     20 C20         15.3310    18.4060     1.2040 c6         1 NK6      -0.074400
     21 C21         13.9960    17.7120     0.9280 c6         1 NK6      -0.088900
     22 N1          12.8000    16.0590    -0.5390 n8         1 NK6      -0.991200
     23 N2          17.4310    19.3110     0.2940 nu         1 NK6      -0.996200
     24 CL1         19.6610    23.7220     3.5650 cl         1 NK6      -0.215000
     25 O1          14.1960    20.5340    -0.0840 o          1 NK6      -0.619100
     26 N3          15.8090    20.9750    -1.5930 n          1 NK6      -0.400800
     27 N4          19.3640    24.7500    -2.3140 ns         1 NK6      -0.502900
     28 O2          20.5270    24.2800    -0.4130 o          1 NK6      -0.573100
     29 H1          14.7510    15.8660     0.1340 h1         1 NK6       0.055700
     30 H2          14.0360    18.0900    -1.8140 hc         1 NK6       0.054950
     31 H3          14.8030    16.5630    -2.2240 hc         1 NK6       0.054950
     32 H4          16.7380    17.1070    -0.7690 hc         1 NK6       0.049950
     33 H5          16.5290    18.2940    -2.0460 hc         1 NK6       0.049950
     34 H6          15.9960    21.2700     1.5400 ha         1 NK6       0.120000
     35 H7          16.9580    23.0890     2.8460 ha         1 NK6       0.127500
     36 H8          20.8810    21.4630     2.2840 ha         1 NK6       0.127500
     37 H9          19.9280    19.6310     0.9490 ha         1 NK6       0.120000
     38 H10         14.0890    22.1490    -1.6160 h1         1 NK6       0.057200
     39 H11         14.9880    22.0980    -3.1390 h1         1 NK6       0.057200
     40 H12         15.8850    23.4970    -0.5740 hc         1 NK6       0.057450
     41 H13         15.2940    24.3030    -2.0280 hc         1 NK6       0.057450
     42 H14         17.1860    23.4700    -3.3310 hc         1 NK6       0.039700
     43 H15         18.1300    24.6240    -0.6690 h1         1 NK6       0.066200
     44 H16         17.4730    25.5540    -2.0190 h1         1 NK6       0.066200
     45 H17         22.3910    23.7530    -2.2280 h1         1 NK6       0.079700
     46 H18         21.5920    24.7150    -3.5010 h1         1 NK6       0.079700
     47 CL2         22.7160    26.0750    -1.9310 cl         1 NK6      -0.246000
     48 H20         18.9300    22.0440    -2.3910 hc         1 NK6       0.057450
     49 H21         18.1870    22.1120    -0.7970 hc         1 NK6       0.057450
     50 H22         16.9880    20.8200    -3.2920 h1         1 NK6       0.057200
     51 H23         17.6460    19.9890    -1.8840 h1         1 NK6       0.057200
     52 H24         16.0320    17.6740     1.6160 hc         1 NK6       0.049950
     53 H25         15.2000    19.1800     1.9590 hc         1 NK6       0.049950
     54 H26         13.2430    18.4510     0.6520 hc         1 NK6       0.054950
     55 H27         13.6530    17.2230     1.8450 hc         1 NK6       0.054950
     56 H28         12.3920    15.6430     0.2930 hn         1 NK6       0.393500
     57 H29         12.1500    16.7870    -0.8270 hn         1 NK6       0.393500
     58 H31         18.1040    18.6010     0.0520 hn         1 NK6       0.483000
     59 H32         19.4420    24.9460    -3.3000 hn         1 NK6       0.310500
@<TRIPOS>BOND
     1     1     2 1   
     2     1    21 1   
     3     1    22 1   
     4     1    29 1   
     5     2     3 1   
     6     2    30 1   
     7     2    31 1   
     8     3     4 1   
     9     3    32 1   
    10     3    33 1   
    11     4    11 1   
    12     4    20 1   
    13     4    23 1   
    14     5     6 ar  
    15     5    10 ar  
    16     5    23 1   
    17     6     7 ar  
    18     6    34 1   
    19     7     8 ar  
    20     7    35 1   
    21     8     9 ar  
    22     8    24 1   
    23     9    10 ar  
    24     9    36 1   
    25    10    37 1   
    26    11    25 2   
    27    11    26 1   
    28    12    13 1   
    29    12    26 1   
    30    12    38 1   
    31    12    39 1   
    32    13    14 1   
    33    13    40 1   
    34    13    41 1   
    35    14    15 1   
    36    14    18 1   
    37    14    42 1   
    38    15    27 1   
    39    15    43 1   
    40    15    44 1   
    41    16    17 1   
    42    16    27 1   
    43    16    28 2   
    44    17    45 1   
    45    17    46 1   
    46    17    47 1   
    47    18    19 1   
    48    18    48 1   
    49    18    49 1   
    50    19    26 1   
    51    19    50 1   
    52    19    51 1   
    53    20    21 1   
    54    20    52 1   
    55    20    53 1   
    56    21    54 1   
    57    21    55 1   
    58    22    56 1   
    59    22    57 1   
    60    23    58 1   
    61    27    59 1   
@<TRIPOS>SUBSTRUCTURE
     1 NK6         1 TEMP              0 ****  ****    0 ROOT
