@<TRIPOS>MOLECULE
NK6
   59    61     1     0     0
SMALL
No Charge or Current Charge


@<TRIPOS>ATOM
      1 C1          13.9010    16.9380    -0.6490 c6         1 NK6       0.153500
      2 C2          14.9760    17.5340    -1.5890 c6         1 NK6      -0.088900
      3 C3          16.2890    17.8260    -0.8120 c6         1 NK6      -0.074400
      4 C4          16.0720    18.8190     0.3870 c6         1 NK6       0.191200
      5 C5          17.9760    19.9960     1.6340 ca         1 NK6       0.331000
      6 C6          17.3170    20.8210     2.5590 ca         1 NK6      -0.190000
      7 C7          17.9400    21.9880     3.0370 ca         1 NK6      -0.052000
      8 C8          19.2320    22.3220     2.5970 ca         1 NK6       0.081000
      9 C9          19.9040    21.4860     1.6890 ca         1 NK6      -0.052000
     10 C10         19.2750    20.3190     1.2150 ca         1 NK6      -0.190000
     11 C11         15.5690    20.2740    -0.0900 c          1 NK6       0.605100
     12 C12         15.1370    21.8500    -2.0100 c6         1 NK6       0.099500
     13 C13         15.7470    23.2570    -1.8020 c6         1 NK6      -0.096400
     14 C14         17.2190    23.3100    -2.2850 c6         1 NK6      -0.081700
     15 C15         17.8340    24.7200    -2.0480 c3         1 NK6       0.100000
     16 C16         20.3540    24.7310    -1.8410 c          1 NK6       0.591100
     17 C17         21.6530    24.8930    -2.6400 c3         1 NK6       0.035600
     18 C18         18.0260    22.1780    -1.5960 c6         1 NK6      -0.096400
     19 C19         17.3650    20.7940    -1.8000 c6         1 NK6       0.099500
     20 C20         14.9990    18.1540     1.3130 c6         1 NK6      -0.074400
     21 C21         13.6650    17.8560     0.5740 c6         1 NK6      -0.088900
     22 N1          12.6420    16.7160    -1.3820 n8         1 NK6      -0.991200
     23 N2          17.3730    18.8400     1.1410 nu         1 NK6      -0.996200
     24 Cl1         20.0130    23.7820     3.1930 cl         1 NK6      -0.215000
     25 O1          14.9020    20.9900     0.6550 o          1 NK6      -0.619100
     26 N3          15.9440    20.7850    -1.3580 n          1 NK6      -0.400800
     27 N4          19.1950    24.8570    -2.5820 ns         1 NK6      -0.502900
     28 O2          20.3420    24.5130    -0.6370 o          1 NK6      -0.573100
     29 H1          14.2540    15.9570    -0.2910 h1         1 NK6       0.055700
     30 H2          14.6030    18.4530    -2.0620 hc         1 NK6       0.054950
     31 H3          15.1850    16.8290    -2.4050 hc         1 NK6       0.054950
     32 H4          16.6760    16.8710    -0.4290 hc         1 NK6       0.049950
     33 H5          17.0530    18.1740    -1.5150 hc         1 NK6       0.049950
     34 H6          16.3240    20.5610     2.9080 ha         1 NK6       0.120000
     35 H7          17.4250    22.6300     3.7480 ha         1 NK6       0.127500
     36 H8          20.9050    21.7440     1.3530 ha         1 NK6       0.127500
     37 H9          19.7970    19.6780     0.5110 ha         1 NK6       0.120000
     38 H10         14.1070    21.8330    -1.6280 h1         1 NK6       0.057200
     39 H11         15.0800    21.6370    -3.0880 h1         1 NK6       0.057200
     40 H12         15.6930    23.5210    -0.7370 hc         1 NK6       0.057450
     41 H13         15.1440    24.0000    -2.3410 hc         1 NK6       0.057450
     42 H14         17.2350    23.1410    -3.3720 hc         1 NK6       0.039700
     43 H15         17.8350    24.9390    -0.9710 h1         1 NK6       0.066200
     44 H16         17.1980    25.4700    -2.5360 h1         1 NK6       0.066200
     45 H17         22.4970    24.5740    -2.0170 h1         1 NK6       0.079700
     46 H18         21.6030    24.2620    -3.5350 h1         1 NK6       0.079700
     47 Cl2         21.9570    26.6120    -3.1740 cl         1 NK6      -0.246000
     48 H20         19.0520    22.1430    -1.9840 hc         1 NK6       0.057450
     49 H21         18.1050    22.3870    -0.5200 hc         1 NK6       0.057450
     50 H22         17.4100    20.5170    -2.8630 h1         1 NK6       0.057200
     51 H23         17.9550    20.0580    -1.2430 h1         1 NK6       0.057200
     52 H24         15.3940    17.2130     1.7220 hc         1 NK6       0.049950
     53 H25         14.8000    18.7930     2.1830 hc         1 NK6       0.049950
     54 H26         13.1930    18.7970     0.2580 hc         1 NK6       0.054950
     55 H27         12.9640    17.3770     1.2700 hc         1 NK6       0.054950
     56 H28         11.9400    16.3460    -0.7310 hn         1 NK6       0.393500
     57 H29         12.2560    17.6260    -1.6590 hn         1 NK6       0.393500
     58 H31         18.0540    18.1400     0.8450 hn         1 NK6       0.483000
     59 H32         19.3060    25.0580    -3.5690 hn         1 NK6       0.310500
@<TRIPOS>BOND
     1     1     2 1   
     2     1    21 1   
     3     1    22 1   
     4     1    29 1   
     5     2     3 1   
     6     2    30 1   
     7     2    31 1   
     8     3     4 1   
     9     3    32 1   
    10     3    33 1   
    11     4    11 1   
    12     4    20 1   
    13     4    23 1   
    14     5     6 ar  
    15     5    10 ar  
    16     5    23 1   
    17     6     7 ar  
    18     6    34 1   
    19     7     8 ar  
    20     7    35 1   
    21     8     9 ar  
    22     8    24 1   
    23     9    10 ar  
    24     9    36 1   
    25    10    37 1   
    26    11    25 2   
    27    11    26 1   
    28    12    13 1   
    29    12    26 1   
    30    12    38 1   
    31    12    39 1   
    32    13    14 1   
    33    13    40 1   
    34    13    41 1   
    35    14    15 1   
    36    14    18 1   
    37    14    42 1   
    38    15    27 1   
    39    15    43 1   
    40    15    44 1   
    41    16    17 1   
    42    16    27 1   
    43    16    28 2   
    44    17    45 1   
    45    17    46 1   
    46    17    47 1   
    47    18    19 1   
    48    18    48 1   
    49    18    49 1   
    50    19    26 1   
    51    19    50 1   
    52    19    51 1   
    53    20    21 1   
    54    20    52 1   
    55    20    53 1   
    56    21    54 1   
    57    21    55 1   
    58    22    56 1   
    59    22    57 1   
    60    23    58 1   
    61    27    59 1   
@<TRIPOS>SUBSTRUCTURE
     1 NK6         1 TEMP              0 ****  ****    0 ROOT
