@<TRIPOS>MOLECULE
NK7
   67    70     1     0     0
SMALL
abcg2


@<TRIPOS>ATOM
      1 C1          -0.8190     1.5130     1.3120 c5         1 NK7       0.145500
      2 C2          -1.4740     2.6580     0.4930 c5         1 NK7       0.237500
      3 C3          -1.7950     3.7270     1.5400 c5         1 NK7       0.144800
      4 N4          -1.9920     2.9570     2.7500 n7         1 NK7      -0.872400
      5 C5          -0.9040     1.9970     2.7680 c5         1 NK7       0.148800
      6 N6           0.5530     1.2880     0.9030 n7         1 NK7      -0.867400
      7 C7           1.1400     0.1300     1.5390 c3         1 NK7       0.199100
      8 C8           2.5440    -0.1340     1.0680 ca         1 NK7      -0.056300
      9 C9           3.3490     0.8790     0.5510 ca         1 NK7      -0.111500
     10 C10          4.6480     0.6160     0.1370 ca         1 NK7      -0.065000
     11 C11          5.1640    -0.6690     0.2470 ca         1 NK7      -0.203300
     12 C12          4.3700    -1.6880     0.7650 ca         1 NK7      -0.065000
     13 C13          3.0740    -1.4190     1.1610 ca         1 NK7      -0.111500
     14 C14         -3.8330     0.1950     2.2010 ca         1 NK7      -0.108000
     15 C15         -3.9120    -1.1090     2.6610 ca         1 NK7      -0.070000
     16 C16         -4.2050    -2.1370     1.7760 ca         1 NK7      -0.192300
     17 C17         -4.3340    -3.5450     2.2660 c3         1 NK7       0.355300
     18 F18         -5.6050    -3.8540     2.5760 f          1 NK7      -0.113667
     19 F19         -3.9400    -4.4390     1.3510 f          1 NK7      -0.113667
     20 F20         -3.6090    -3.7690     3.3670 f          1 NK7      -0.113667
     21 N21         -2.6370     2.2160    -0.2810 n3         1 NK7      -0.794500
     22 C22         -3.9160     1.9160     0.3680 c3         1 NK7       0.283100
     23 C23         -4.0320     0.4920     0.8590 ca         1 NK7      -0.079300
     24 C24         -4.4380    -1.8520     0.4360 ca         1 NK7      -0.070000
     25 C25         -4.3500    -0.5460    -0.0150 ca         1 NK7      -0.108000
     26 C26          2.3560    -1.1390    -2.9740 c          1 NK7       0.605700
     27 S27         -2.5060     2.2900    -1.9100 sy         1 NK7       1.181600
     28 O28         -3.6810     1.6500    -2.4850 o          1 NK7      -0.537500
     29 O29         -2.1920     3.6440    -2.3460 o          1 NK7      -0.537500
     30 C30         -1.0760     1.2930    -2.2650 ca         1 NK7      -0.269500
     31 C31         -1.0940    -0.0560    -1.9250 ca         1 NK7      -0.028500
     32 C32          0.0240    -0.8330    -2.1710 ca         1 NK7      -0.097500
     33 C34          1.1590     1.0870    -3.0830 ca         1 NK7      -0.097500
     34 C35          0.0340     1.8710    -2.8610 ca         1 NK7      -0.028500
     35 N36          3.5490    -0.5220    -2.9840 nt         1 NK7      -0.592000
     36 O37          2.2190    -2.3360    -3.1550 o          1 NK7      -0.585100
     37 C38          6.5390    -0.9960    -0.2380 c3         1 NK7       0.356300
     38 F39          7.2180    -1.7510     0.6360 f          1 NK7      -0.113333
     39 F40          6.5010    -1.6950    -1.3890 f          1 NK7      -0.113333
     40 F41          7.2770     0.0910    -0.4760 f          1 NK7      -0.113333
     41 C42          1.1660    -0.2580    -2.7290 ca         1 NK7      -0.101600
     42 H1          -1.4290     0.6040     1.2010 h1         1 NK7       0.053700
     43 H2          -0.7490     3.0800    -0.2050 h1         1 NK7       0.072700
     44 H3          -0.9350     4.4110     1.6020 h1         1 NK7       0.053200
     45 H3A         -2.6690     4.3310     1.2880 h1         1 NK7       0.053200
     46 HN4         -1.9970     3.5390     3.5780 hn         1 NK7       0.424000
     47 H5          -1.1110     1.1900     3.4720 h1         1 NK7       0.049200
     48 H5A          0.0630     2.4480     3.0390 h1         1 NK7       0.049200
     49 HN6          0.5840     1.1510    -0.0990 hn         1 NK7       0.419000
     50 H7           1.1670     0.2990     2.6210 h1         1 NK7       0.047700
     51 H7A          0.5410    -0.7840     1.3930 h1         1 NK7       0.047700
     52 H9           2.9600     1.8850     0.4670 ha         1 NK7       0.130000
     53 H10          5.2420     1.4260    -0.2640 ha         1 NK7       0.132000
     54 H12          4.7470    -2.6990     0.8500 ha         1 NK7       0.132000
     55 H13          2.4640    -2.2270     1.5470 ha         1 NK7       0.130000
     56 H14         -3.5900     0.9930     2.8890 ha         1 NK7       0.142000
     57 H15         -3.7440    -1.3060     3.7120 ha         1 NK7       0.131500
     58 H22         -4.0200     2.5980     1.2110 h1         1 NK7       0.076200
     59 H22A        -4.7320     2.1440    -0.3130 h1         1 NK7       0.076200
     60 H24         -4.6790    -2.6380    -0.2680 ha         1 NK7       0.131500
     61 H25         -4.5410    -0.3390    -1.0610 ha         1 NK7       0.142000
     62 H31         -1.9620    -0.5000    -1.4660 ha         1 NK7       0.140000
     63 H32          0.0140    -1.8820    -1.9100 ha         1 NK7       0.133500
     64 H34          2.0160     1.5450    -3.5560 ha         1 NK7       0.133500
     65 H35          0.0420     2.9150    -3.1380 ha         1 NK7       0.140000
     66 HN36         4.3800    -1.0840    -3.0720 hn         1 NK7       0.316000
     67 HN3A         3.6710     0.4020    -2.6080 hn         1 NK7       0.316000
@<TRIPOS>BOND
     1     1     2 1   
     2     1     5 1   
     3     1     6 1   
     4     1    42 1   
     5     2     3 1   
     6     2    21 1   
     7     2    43 1   
     8     3     4 1   
     9     3    44 1   
    10     3    45 1   
    11     4     5 1   
    12     4    46 1   
    13     5    47 1   
    14     5    48 1   
    15     6     7 1   
    16     6    49 1   
    17     7     8 1   
    18     7    50 1   
    19     7    51 1   
    20     8     9 ar  
    21     8    13 ar  
    22     9    10 ar  
    23     9    52 1   
    24    10    11 ar  
    25    10    53 1   
    26    11    12 ar  
    27    11    37 1   
    28    12    13 ar  
    29    12    54 1   
    30    13    55 1   
    31    14    15 ar  
    32    14    23 ar  
    33    14    56 1   
    34    15    16 ar  
    35    15    57 1   
    36    16    17 1   
    37    16    24 ar  
    38    17    18 1   
    39    17    19 1   
    40    17    20 1   
    41    21    22 1   
    42    21    27 1   
    43    22    23 1   
    44    22    58 1   
    45    22    59 1   
    46    23    25 ar  
    47    24    25 ar  
    48    24    60 1   
    49    25    61 1   
    50    26    35 1   
    51    26    36 2   
    52    26    41 1   
    53    27    28 2   
    54    27    29 2   
    55    27    30 1   
    56    30    31 ar  
    57    30    34 ar  
    58    31    32 ar  
    59    31    62 1   
    60    32    41 ar  
    61    32    63 1   
    62    33    34 ar  
    63    33    41 ar  
    64    33    64 1   
    65    34    65 1   
    66    35    66 1   
    67    35    67 1   
    68    37    38 1   
    69    37    39 1   
    70    37    40 1   
@<TRIPOS>SUBSTRUCTURE
     1 NK7         1 TEMP              0 ****  ****    0 ROOT
