@<TRIPOS>MOLECULE
NK7
   67    70     1     0     0
SMALL
No Charge or Current Charge


@<TRIPOS>ATOM
      1 C1          -1.0090     1.4220     1.3030 c5         1 NK7       0.145500
      2 C2          -1.5440     2.6240     0.4340 c5         1 NK7       0.237500
      3 C3          -2.0120     3.6910     1.4940 c5         1 NK7       0.144800
      4 N4          -2.0730     2.9770     2.7980 n7         1 NK7      -0.872400
      5 C5          -0.9020     2.0700     2.7250 c5         1 NK7       0.148800
      6 N6           0.3500     1.0180     0.8180 n7         1 NK7      -0.867400
      7 C7           0.9390    -0.1620     1.4780 c3         1 NK7       0.199100
      8 C8           2.3370    -0.4590     0.9470 ca         1 NK7      -0.056300
      9 C9           3.3120     0.5540     0.8890 ca         1 NK7      -0.111500
     10 C10          4.6100     0.2730     0.4290 ca         1 NK7      -0.065000
     11 C11          4.9560    -1.0320     0.0190 ca         1 NK7      -0.203300
     12 C12          3.9800    -2.0500     0.0890 ca         1 NK7      -0.065000
     13 C13          2.6810    -1.7630     0.5450 ca         1 NK7      -0.111500
     14 C14         -4.2700     0.4390     2.2530 ca         1 NK7      -0.108000
     15 C15         -4.3330    -0.7930     2.9260 ca         1 NK7      -0.070000
     16 C16         -4.2480    -2.0060     2.2090 ca         1 NK7      -0.192300
     17 C17         -4.3220    -3.3520     2.9400 c3         1 NK7       0.355300
     18 F18         -5.5980    -3.7870     3.0390 f          1 NK7      -0.113667
     19 F19         -3.6220    -4.3200     2.3050 f          1 NK7      -0.113667
     20 F20         -3.8290    -3.2830     4.1980 f          1 NK7      -0.113667
     21 N21         -2.6950     2.1760    -0.4350 n3         1 NK7      -0.794500
     22 C22         -4.0340     1.8410     0.1370 c3         1 NK7       0.283100
     23 C23         -4.1200     0.4890     0.8530 ca         1 NK7      -0.079300
     24 C24         -4.1210    -1.9560     0.8050 ca         1 NK7      -0.070000
     25 C25         -4.0580    -0.7220     0.1360 ca         1 NK7      -0.108000
     26 C26          2.9720    -0.5670    -2.9300 c          1 NK7       0.605700
     27 S27         -2.5180     2.1060    -2.1220 sy         1 NK7       1.181600
     28 O28         -3.4970     1.1290    -2.6100 o          1 NK7      -0.537500
     29 O29         -2.5080     3.4930    -2.5990 o          1 NK7      -0.537500
     30 C30         -0.8900     1.3440    -2.3020 ca         1 NK7      -0.269500
     31 C31         -0.7530    -0.0540    -2.1920 ca         1 NK7      -0.028500
     32 C32          0.5030    -0.6570    -2.3790 ca         1 NK7      -0.097500
     33 C34          1.5010     1.5270    -2.7530 ca         1 NK7      -0.097500
     34 C35          0.2440     2.1320    -2.5750 ca         1 NK7      -0.028500
     35 N36          4.0730     0.2020    -3.0910 nt         1 NK7      -0.592000
     36 O37          3.0770    -1.7780    -3.0350 o          1 NK7      -0.585100
     37 C38          6.3740    -1.3410    -0.4760 c3         1 NK7       0.356300
     38 F39          7.1950    -1.6570     0.5500 f          1 NK7      -0.113333
     39 F40          6.4050    -2.3800    -1.3420 f          1 NK7      -0.113333
     40 F41          6.9320    -0.2890    -1.1190 f          1 NK7      -0.113333
     41 C42          1.6450     0.1210    -2.6730 ca         1 NK7      -0.101600
     42 H1          -1.6920     0.5670     1.3060 h1         1 NK7       0.053700
     43 H2          -0.7390     3.0680    -0.1660 h1         1 NK7       0.072700
     44 H3          -1.2550     4.4860     1.5510 h1         1 NK7       0.053200
     45 H3A         -2.9590     4.1830     1.2360 h1         1 NK7       0.053200
     46 HN4         -1.9750     3.6390     3.5800 hn         1 NK7       0.424000
     47 H5          -0.9180     1.3160     3.5240 h1         1 NK7       0.049200
     48 H5A          0.0310     2.6440     2.8230 h1         1 NK7       0.049200
     49 HN6          0.2890     0.8070    -0.1860 hn         1 NK7       0.419000
     50 H7           1.0120    -0.0010     2.5620 h1         1 NK7       0.047700
     51 H7A          0.2960    -1.0390     1.3230 h1         1 NK7       0.047700
     52 H9           3.0630     1.5640     1.2060 ha         1 NK7       0.130000
     53 H10          5.3460     1.0740     0.3990 ha         1 NK7       0.132000
     54 H12          4.2210    -3.0680    -0.2110 ha         1 NK7       0.132000
     55 H13          1.9440    -2.5620     0.5910 ha         1 NK7       0.130000
     56 H14         -4.3280     1.3610     2.8280 ha         1 NK7       0.142000
     57 H15         -4.4470    -0.7980     4.0080 ha         1 NK7       0.131500
     58 H22         -4.3500     2.6180     0.8440 h1         1 NK7       0.076200
     59 H22A        -4.8080     1.8540    -0.6420 h1         1 NK7       0.076200
     60 H24         -4.0720    -2.8750     0.2240 ha         1 NK7       0.131500
     61 H25         -3.9610    -0.7140    -0.9450 ha         1 NK7       0.142000
     62 H31         -1.6170    -0.6790    -1.9760 ha         1 NK7       0.140000
     63 H32          0.5830    -1.7390    -2.3050 ha         1 NK7       0.133500
     64 H34          2.3500     2.1660    -2.9800 ha         1 NK7       0.133500
     65 H35          0.1570     3.2140    -2.6630 ha         1 NK7       0.140000
     66 HN36         4.9590    -0.2450    -3.2640 hn         1 NK7       0.316000
     67 HN3A         4.0130     1.2030    -2.9990 hn         1 NK7       0.316000
@<TRIPOS>BOND
     1     1     2 1   
     2     1     5 1   
     3     1     6 1   
     4     1    42 1   
     5     2     3 1   
     6     2    21 1   
     7     2    43 1   
     8     3     4 1   
     9     3    44 1   
    10     3    45 1   
    11     4     5 1   
    12     4    46 1   
    13     5    47 1   
    14     5    48 1   
    15     6     7 1   
    16     6    49 1   
    17     7     8 1   
    18     7    50 1   
    19     7    51 1   
    20     8     9 ar  
    21     8    13 ar  
    22     9    10 ar  
    23     9    52 1   
    24    10    11 ar  
    25    10    53 1   
    26    11    12 ar  
    27    11    37 1   
    28    12    13 ar  
    29    12    54 1   
    30    13    55 1   
    31    14    15 ar  
    32    14    23 ar  
    33    14    56 1   
    34    15    16 ar  
    35    15    57 1   
    36    16    17 1   
    37    16    24 ar  
    38    17    18 1   
    39    17    19 1   
    40    17    20 1   
    41    21    22 1   
    42    21    27 1   
    43    22    23 1   
    44    22    58 1   
    45    22    59 1   
    46    23    25 ar  
    47    24    25 ar  
    48    24    60 1   
    49    25    61 1   
    50    26    35 1   
    51    26    36 2   
    52    26    41 1   
    53    27    28 2   
    54    27    29 2   
    55    27    30 1   
    56    30    31 ar  
    57    30    34 ar  
    58    31    32 ar  
    59    31    62 1   
    60    32    41 ar  
    61    32    63 1   
    62    33    34 ar  
    63    33    41 ar  
    64    33    64 1   
    65    34    65 1   
    66    35    66 1   
    67    35    67 1   
    68    37    38 1   
    69    37    39 1   
    70    37    40 1   
@<TRIPOS>SUBSTRUCTURE
     1 NK7         1 TEMP              0 ****  ****    0 ROOT
