@<TRIPOS>MOLECULE
NK8
   68    71     1     0     0
SMALL
No Charge or Current Charge


@<TRIPOS>ATOM
      1 C1          -1.3170    -3.2190    -0.0170 ca         1 NK8      -0.110000
      2 C2          -2.6680    -3.0090     0.3140 ca         1 NK8      -0.054500
      3 C3          -3.0310    -2.0260     1.2590 ca         1 NK8      -0.200300
      4 C4          -4.5030    -1.8400     1.6460 c3         1 NK8       0.357300
      5 F5          -4.8980    -2.7830     2.5300 f          1 NK8      -0.113333
      6 F6          -4.7470    -0.6390     2.2190 f          1 NK8      -0.113333
      7 F7          -5.3260    -1.9340     0.5770 f          1 NK8      -0.113333
      8 C8          -2.0150    -1.2550     1.8630 ca         1 NK8      -0.054500
      9 C9          -0.6660    -1.4690     1.5330 ca         1 NK8      -0.110000
     10 C10         -0.3040    -2.4520     0.5910 ca         1 NK8      -0.066300
     11 C11          1.1670    -2.7020     0.2510 c3         1 NK8       0.267100
     12 N12          1.9460    -1.4500     0.0600 n3         1 NK8      -0.774500
     13 S13          3.3490    -1.3900     1.0210 sy         1 NK8       1.177600
     14 C14          4.0300     0.2320     0.6180 ca         1 NK8      -0.278500
     15 C15          3.4040     1.3930     1.1100 ca         1 NK8      -0.026000
     16 C16          3.9150     2.6610     0.7860 ca         1 NK8      -0.093000
     17 C17          5.0600     2.7960    -0.0330 ca         1 NK8      -0.099600
     18 C18          5.5840     4.1800    -0.3620 c          1 NK8       0.609700
     19 O19          5.0600     5.2010     0.0530 o          1 NK8      -0.587100
     20 N20          6.6790     4.2850    -1.1490 nt         1 NK8      -0.600000
     21 C21          5.6810     1.6200    -0.5220 ca         1 NK8      -0.093000
     22 C22          5.1700     0.3500    -0.2000 ca         1 NK8      -0.026000
     23 O23          2.8820    -1.3300     2.4100 o          1 NK8      -0.528500
     24 O24          4.2490    -2.4410     0.5340 o          1 NK8      -0.528500
     25 C25          1.9400    -0.7710    -1.2920 c5         1 NK8       0.184500
     26 C26          0.5470    -0.8240    -1.9890 c5         1 NK8       0.135500
     27 N27         -0.3680     0.1650    -1.3570 n7         1 NK8      -0.848400
     28 C28         -1.7310     0.2200    -1.9110 c3         1 NK8       0.202100
     29 C29         -2.6530     1.1000    -1.0700 ca         1 NK8      -0.074300
     30 C30         -2.1950     2.2940    -0.4800 ca         1 NK8      -0.110000
     31 C31         -3.0610     3.0870     0.2930 ca         1 NK8      -0.072500
     32 C32         -4.4090     2.7110     0.4860 ca         1 NK8      -0.151600
     33 C33         -5.3160     3.5830     1.3280 c          1 NK8       0.616700
     34 N34         -6.5980     3.1950     1.5050 nt         1 NK8      -0.603000
     35 O35         -4.9370     4.6190     1.8500 o          1 NK8      -0.604100
     36 C36         -4.8680     1.5180    -0.1230 ca         1 NK8      -0.072500
     37 C37         -3.9970     0.7260    -0.8900 ca         1 NK8      -0.110000
     38 C38          1.0070    -0.3720    -3.4070 c5         1 NK8       0.138800
     39 N40          2.2330    -1.1890    -3.6850 n7         1 NK8      -0.831400
     40 C41          2.7760    -1.5770    -2.3400 c5         1 NK8       0.125800
     41 H1          -1.0600    -3.9870    -0.7430 ha         1 NK8       0.123000
     42 H2          -3.4310    -3.6240    -0.1590 ha         1 NK8       0.134000
     43 H8          -2.2610    -0.4950     2.6030 ha         1 NK8       0.134000
     44 H9           0.1020    -0.8730     2.0190 ha         1 NK8       0.123000
     45 H11          1.5760    -3.3020     1.0760 h1         1 NK8       0.066200
     46 H11A         1.2370    -3.3410    -0.6400 h1         1 NK8       0.066200
     47 H15          2.5150     1.3160     1.7350 ha         1 NK8       0.138000
     48 H16          3.4130     3.5440     1.1760 ha         1 NK8       0.132000
     49 HN20         7.1320     3.4590    -1.5060 hn         1 NK8       0.317000
     50 HN2A         7.0350     5.2020    -1.3730 hn         1 NK8       0.317000
     51 H21          6.5620     1.6720    -1.1550 ha         1 NK8       0.132000
     52 H22          5.6670    -0.5360    -0.5910 ha         1 NK8       0.138000
     53 H25          2.2870     0.2700    -1.2400 h1         1 NK8       0.097700
     54 H26          0.1130    -1.8330    -2.0190 h1         1 NK8       0.027700
     55 HN27        -0.4610    -0.1160    -0.3730 hn         1 NK8       0.429000
     56 H28         -1.7130     0.6070    -2.9390 h1         1 NK8       0.040700
     57 H28A        -2.1560    -0.7930    -1.9500 h1         1 NK8       0.040700
     58 H30         -1.1630     2.6110    -0.6160 ha         1 NK8       0.124500
     59 H31         -2.6770     4.0010     0.7420 ha         1 NK8       0.125500
     60 HN34        -6.9340     2.3430     1.0850 hn         1 NK8       0.313500
     61 HN3A        -7.2110     3.7690     2.0630 hn         1 NK8       0.313500
     62 H36         -5.8970     1.1880    -0.0080 ha         1 NK8       0.125500
     63 H37         -4.3710    -0.1870    -1.3480 ha         1 NK8       0.124500
     64 H38          0.2280    -0.5240    -4.1670 h1         1 NK8       0.070200
     65 H38A         1.2570     0.6990    -3.4010 h1         1 NK8       0.070200
     66 HN40         1.9610    -2.0480    -4.1800 hn         1 NK8       0.402000
     67 H41          3.8480    -1.3500    -2.2590 h1         1 NK8       0.054700
     68 H41A         2.6610    -2.6600    -2.1920 h1         1 NK8       0.054700
@<TRIPOS>BOND
     1     1     2 ar  
     2     1    10 ar  
     3     1    41 1   
     4     2     3 ar  
     5     2    42 1   
     6     3     4 1   
     7     3     8 ar  
     8     4     5 1   
     9     4     6 1   
    10     4     7 1   
    11     8     9 ar  
    12     8    43 1   
    13     9    10 ar  
    14     9    44 1   
    15    10    11 1   
    16    11    12 1   
    17    11    45 1   
    18    11    46 1   
    19    12    13 1   
    20    12    25 1   
    21    13    14 1   
    22    13    23 2   
    23    13    24 2   
    24    14    15 ar  
    25    14    22 ar  
    26    15    16 ar  
    27    15    47 1   
    28    16    17 ar  
    29    16    48 1   
    30    17    18 1   
    31    17    21 ar  
    32    18    19 2   
    33    18    20 1   
    34    20    49 1   
    35    20    50 1   
    36    21    22 ar  
    37    21    51 1   
    38    22    52 1   
    39    25    26 1   
    40    25    40 1   
    41    25    53 1   
    42    26    27 1   
    43    26    38 1   
    44    26    54 1   
    45    27    28 1   
    46    27    55 1   
    47    28    29 1   
    48    28    56 1   
    49    28    57 1   
    50    29    30 ar  
    51    29    37 ar  
    52    30    31 ar  
    53    30    58 1   
    54    31    32 ar  
    55    31    59 1   
    56    32    33 1   
    57    32    36 ar  
    58    33    34 1   
    59    33    35 2   
    60    34    60 1   
    61    34    61 1   
    62    36    37 ar  
    63    36    62 1   
    64    37    63 1   
    65    38    39 1   
    66    38    64 1   
    67    38    65 1   
    68    39    40 1   
    69    39    66 1   
    70    40    67 1   
    71    40    68 1   
@<TRIPOS>SUBSTRUCTURE
     1 NK8         1 TEMP              0 ****  ****    0 ROOT
