@<TRIPOS>MOLECULE
NK8
   68    71     1     0     0
SMALL
bcc


@<TRIPOS>ATOM
      1 C1          -0.4360    -3.1070    -0.3440 ca         1 NK8      -0.128000
      2 C2          -1.7180    -3.5640    -0.0950 ca         1 NK8      -0.072500
      3 C3          -2.5330    -2.8850     0.8060 ca         1 NK8      -0.200300
      4 C4          -3.9170    -3.3950     1.0480 c3         1 NK8       0.721200
      5 F5          -3.9090    -4.6270     1.5770 f          1 NK8      -0.234633
      6 F6          -4.6210    -2.6170     1.8740 f          1 NK8      -0.234633
      7 F7          -4.6170    -3.4820    -0.0960 f          1 NK8      -0.234633
      8 C8          -2.0490    -1.7600     1.4590 ca         1 NK8      -0.072500
      9 C9          -0.7580    -1.3160     1.2100 ca         1 NK8      -0.128000
     10 C10          0.0580    -1.9770     0.3010 ca         1 NK8      -0.066300
     11 C11          1.4710    -1.5200     0.0210 c3         1 NK8       0.267100
     12 N12          1.6190    -0.0750     0.0670 n3         1 NK8      -0.774500
     13 S13          2.3840     0.6530     1.3290 sy         1 NK8       1.319200
     14 C14          4.0180     1.0030     0.7350 ca         1 NK8      -0.278500
     15 C15          4.3670     2.2980     0.3830 ca         1 NK8      -0.044000
     16 C16          5.6280     2.5350    -0.1410 ca         1 NK8      -0.111000
     17 C17          6.5220     1.4880    -0.3330 ca         1 NK8      -0.099600
     18 C18          7.8720     1.8090    -0.9040 c          1 NK8       0.676700
     19 O19          8.3530     2.9250    -0.7760 o          1 NK8      -0.587100
     20 N20          8.4920     0.8080    -1.5430 nt         1 NK8      -0.667000
     21 C21          6.1590     0.1960     0.0420 ca         1 NK8      -0.111000
     22 C22          4.9090    -0.0510     0.5820 ca         1 NK8      -0.044000
     23 O23          1.7270     1.9240     1.5850 o          1 NK8      -0.599300
     24 O24          2.4750    -0.3310     2.3950 o          1 NK8      -0.599300
     25 C25          1.4380     0.6980    -1.1590 c5         1 NK8       0.184500
     26 C26          0.1060     0.4270    -1.8530 c5         1 NK8       0.135500
     27 N27         -0.9950     1.0660    -1.1750 n7         1 NK8      -0.793200
     28 C28         -2.2840     0.5190    -1.5540 c3         1 NK8       0.202100
     29 C29         -3.4000     1.1220    -0.7470 ca         1 NK8      -0.074300
     30 C30         -3.4070     2.4760    -0.4200 ca         1 NK8      -0.128000
     31 C31         -4.4470     3.0200     0.3150 ca         1 NK8      -0.090500
     32 C32         -5.4980     2.2210     0.7600 ca         1 NK8      -0.151600
     33 C33         -6.5970     2.8670     1.5420 c          1 NK8       0.683700
     34 N34         -7.3330     2.0570     2.3180 nt         1 NK8      -0.670000
     35 O35         -6.8030     4.0710     1.4620 o          1 NK8      -0.604100
     36 C36         -5.4970     0.8680     0.4290 ca         1 NK8      -0.090500
     37 C37         -4.4590     0.3300    -0.3160 ca         1 NK8      -0.128000
     38 C38          0.4190     0.9510    -3.2550 c5         1 NK8       0.138800
     39 N40          1.7670     0.4760    -3.5440 n7         1 NK8      -0.776200
     40 C41          2.4920     0.4760    -2.2700 c5         1 NK8       0.125800
     41 H1           0.1840    -3.6320    -1.0600 ha         1 NK8       0.141000
     42 H2          -2.0760    -4.4420    -0.6170 ha         1 NK8       0.152000
     43 H8          -2.6640    -1.2140     2.1590 ha         1 NK8       0.152000
     44 H9          -0.4040    -0.4380     1.7340 ha         1 NK8       0.141000
     45 H11          2.1430    -1.9940     0.7370 h1         1 NK8       0.066200
     46 H11A         1.7880    -1.8810    -0.9600 h1         1 NK8       0.066200
     47 H15          3.6750     3.1180     0.5100 ha         1 NK8       0.156000
     48 H16          5.9090     3.5430    -0.4110 ha         1 NK8       0.150000
     49 HN20         8.0340    -0.0580    -1.7700 hn         1 NK8       0.317000
     50 HN2A         9.3900     0.9710    -1.9690 hn         1 NK8       0.317000
     51 H21          6.8500    -0.6300    -0.0570 ha         1 NK8       0.150000
     52 H22          4.6460    -1.0590     0.8760 ha         1 NK8       0.156000
     53 H25          1.4290     1.7540    -0.8780 h1         1 NK8       0.097700
     54 H26         -0.0430    -0.6630    -1.9430 h1         1 NK8       0.027700
     55 HN27        -0.8820     0.9450    -0.1750 hn         1 NK8       0.373800
     56 H28         -2.4530     0.7290    -2.6160 h1         1 NK8       0.040700
     57 H28A        -2.3190    -0.5770    -1.4510 h1         1 NK8       0.040700
     58 H30         -2.5900     3.1090    -0.7410 ha         1 NK8       0.142500
     59 H31         -4.4360     4.0750     0.5540 ha         1 NK8       0.143500
     60 HN34        -7.0790     1.1030     2.5040 hn         1 NK8       0.313500
     61 HN3A        -8.0740     2.4460     2.8790 hn         1 NK8       0.313500
     62 H36         -6.3090     0.2180     0.7270 ha         1 NK8       0.143500
     63 H37         -4.4770    -0.7220    -0.5710 ha         1 NK8       0.142500
     64 H38         -0.2810     0.6050    -4.0150 h1         1 NK8       0.070200
     65 H38A         0.3900     2.0460    -3.2470 h1         1 NK8       0.070200
     66 HN40         1.7080    -0.4720    -3.8890 hn         1 NK8       0.346800
     67 H41          3.2340     1.2770    -2.2410 h1         1 NK8       0.054700
     68 H41A         3.0370    -0.4610    -2.1360 h1         1 NK8       0.054700
@<TRIPOS>BOND
     1     1     2 ar  
     2     1    10 ar  
     3     1    41 1   
     4     2     3 ar  
     5     2    42 1   
     6     3     4 1   
     7     3     8 ar  
     8     4     5 1   
     9     4     6 1   
    10     4     7 1   
    11     8     9 ar  
    12     8    43 1   
    13     9    10 ar  
    14     9    44 1   
    15    10    11 1   
    16    11    12 1   
    17    11    45 1   
    18    11    46 1   
    19    12    13 1   
    20    12    25 1   
    21    13    14 1   
    22    13    23 2   
    23    13    24 2   
    24    14    15 ar  
    25    14    22 ar  
    26    15    16 ar  
    27    15    47 1   
    28    16    17 ar  
    29    16    48 1   
    30    17    18 1   
    31    17    21 ar  
    32    18    19 2   
    33    18    20 1   
    34    20    49 1   
    35    20    50 1   
    36    21    22 ar  
    37    21    51 1   
    38    22    52 1   
    39    25    26 1   
    40    25    40 1   
    41    25    53 1   
    42    26    27 1   
    43    26    38 1   
    44    26    54 1   
    45    27    28 1   
    46    27    55 1   
    47    28    29 1   
    48    28    56 1   
    49    28    57 1   
    50    29    30 ar  
    51    29    37 ar  
    52    30    31 ar  
    53    30    58 1   
    54    31    32 ar  
    55    31    59 1   
    56    32    33 1   
    57    32    36 ar  
    58    33    34 1   
    59    33    35 2   
    60    34    60 1   
    61    34    61 1   
    62    36    37 ar  
    63    36    62 1   
    64    37    63 1   
    65    38    39 1   
    66    38    64 1   
    67    38    65 1   
    68    39    40 1   
    69    39    66 1   
    70    40    67 1   
    71    40    68 1   
@<TRIPOS>SUBSTRUCTURE
     1 NK8         1 TEMP              0 ****  ****    0 ROOT
