@<TRIPOS>MOLECULE
NK9
   66    69     1     0     0
SMALL
No Charge or Current Charge


@<TRIPOS>ATOM
      1 C1          -1.0010    -3.7230    -0.4080 c5         1 NK9       0.142800
      2 N2          -1.2290    -3.4760    -1.8560 n7         1 NK9      -0.873400
      3 C3          -0.2100    -2.4440    -2.1710 c5         1 NK9       0.150800
      4 C4          -0.2800    -1.4150    -0.9860 c5         1 NK9       0.147500
      5 N5           1.0950    -0.8780    -0.7110 n7         1 NK9      -0.859400
      6 C6           1.5790     0.1510    -1.6530 c3         1 NK9       0.199100
      7 C7           3.0540     0.4780    -1.4220 ca         1 NK9      -0.011300
      8 C8           4.0330    -0.0140    -2.3090 ca         1 NK9      -0.235000
      9 C9           5.3850     0.3050    -2.1200 ca         1 NK9       0.179600
     10 O10          6.3250    -0.1690    -2.9820 oh         1 NK9      -0.544100
     11 C11          5.7740     1.1140    -1.0470 ca         1 NK9      -0.191000
     12 C12          4.8120     1.5990    -0.1530 ca         1 NK9       0.179600
     13 O13          5.2040     2.3810     0.8890 oh         1 NK9      -0.544100
     14 C14          3.4560     1.2860    -0.3380 ca         1 NK9      -0.235000
     15 C15         -0.7510    -2.3070     0.2290 c5         1 NK9       0.232500
     16 N16         -2.0280    -1.7480     0.8210 n3         1 NK9      -0.789500
     17 S17         -2.1640    -1.5620     2.5010 sy         1 NK9       1.177600
     18 O18         -3.1990    -0.5450     2.7180 o          1 NK9      -0.538500
     19 O19         -2.2490    -2.9040     3.0860 o          1 NK9      -0.538500
     20 C20         -0.5890    -0.7780     2.8880 ca         1 NK9      -0.256500
     21 C21         -0.3210     0.5060     2.3800 ca         1 NK9      -0.025500
     22 C22          0.9230     1.1100     2.6130 ca         1 NK9      -0.093500
     23 C23          1.9230     0.4460     3.3570 ca         1 NK9      -0.106600
     24 C24          3.2640     1.1170     3.5620 c          1 NK9       0.624700
     25 N25          4.1570     0.5400     4.3910 nt         1 NK9      -0.581000
     26 O26          3.5770     2.1470     2.9830 o          1 NK9      -0.640100
     27 C27          1.6390    -0.8430     3.8740 ca         1 NK9      -0.093500
     28 C28          0.3930    -1.4520     3.6390 ca         1 NK9      -0.025500
     29 C29         -3.3120    -1.8060     0.0630 c3         1 NK9       0.276100
     30 C30         -3.4670    -0.6990    -0.9800 ca         1 NK9      -0.070300
     31 C31         -3.5790    -1.0140    -2.3480 ca         1 NK9      -0.108500
     32 C32         -3.7040     0.0040    -3.3080 ca         1 NK9      -0.068000
     33 C33         -3.7180     1.3610    -2.9170 ca         1 NK9      -0.194300
     34 C34         -3.8610     2.4730    -3.9630 c3         1 NK9       0.356300
     35 F35         -5.1600     2.7720    -4.1870 f          1 NK9      -0.113667
     36 F36         -3.2510     3.6190    -3.5820 f          1 NK9      -0.113667
     37 F37         -3.3230     2.1290    -5.1560 f          1 NK9      -0.113667
     38 C38         -3.6220     1.6740    -1.5440 ca         1 NK9      -0.068000
     39 C39         -3.4970     0.6530    -0.5870 ca         1 NK9      -0.108500
     40 H1          -1.8310    -4.2660     0.0640 h1         1 NK9       0.053700
     41 H1A         -0.1000    -4.3400    -0.2770 h1         1 NK9       0.053700
     42 HN2         -1.0620    -4.3310    -2.4030 hn         1 NK9       0.421000
     43 H3           0.7860    -2.9080    -2.2210 h1         1 NK9       0.049200
     44 H3A         -0.4000    -1.9650    -3.1420 h1         1 NK9       0.049200
     45 H4          -0.9810    -0.5980    -1.1940 h1         1 NK9       0.050700
     46 HN5          1.1100    -0.4580     0.2250 hn         1 NK9       0.416000
     47 H6           1.4540    -0.1930    -2.6890 h1         1 NK9       0.039200
     48 H6A          0.9870     1.0700    -1.5480 h1         1 NK9       0.039200
     49 H8           3.7320    -0.6400    -3.1450 ha         1 NK9       0.118500
     50 HO10         5.8700    -0.7120    -3.6610 ho         1 NK9       0.482000
     51 H11          6.8220     1.3600    -0.9040 ha         1 NK9       0.140000
     52 HO13         4.5000     2.3470     1.5930 ho         1 NK9       0.482000
     53 H14          2.7100     1.6780     0.3460 ha         1 NK9       0.118500
     54 H15          0.0420    -2.3920     0.9830 h1         1 NK9       0.073700
     55 H21         -1.0710     1.0310     1.7900 ha         1 NK9       0.141500
     56 H22          1.1090     2.1030     2.2090 ha         1 NK9       0.131500
     57 HN25         3.9230    -0.3050     4.8870 hn         1 NK9       0.325000
     58 HN2A         5.0530     0.9830     4.5290 hn         1 NK9       0.325000
     59 H27          2.3810    -1.3950     4.4450 ha         1 NK9       0.131500
     60 H28          0.2040    -2.4500     4.0300 ha         1 NK9       0.141500
     61 H29         -3.4370    -2.7790    -0.4280 h1         1 NK9       0.077200
     62 H29A        -4.1740    -1.7260     0.7390 h1         1 NK9       0.077200
     63 H31         -3.5590    -2.0530    -2.6710 ha         1 NK9       0.137500
     64 H32         -3.7900    -0.2680    -4.3580 ha         1 NK9       0.130500
     65 H38         -3.6450     2.7100    -1.2120 ha         1 NK9       0.130500
     66 H39         -3.4170     0.9140     0.4650 ha         1 NK9       0.137500
@<TRIPOS>BOND
     1     1     2 1   
     2     1    15 1   
     3     1    40 1   
     4     1    41 1   
     5     2     3 1   
     6     2    42 1   
     7     3     4 1   
     8     3    43 1   
     9     3    44 1   
    10     4     5 1   
    11     4    15 1   
    12     4    45 1   
    13     5     6 1   
    14     5    46 1   
    15     6     7 1   
    16     6    47 1   
    17     6    48 1   
    18     7     8 ar  
    19     7    14 ar  
    20     8     9 ar  
    21     8    49 1   
    22     9    10 1   
    23     9    11 ar  
    24    10    50 1   
    25    11    12 ar  
    26    11    51 1   
    27    12    13 1   
    28    12    14 ar  
    29    13    52 1   
    30    14    53 1   
    31    15    16 1   
    32    15    54 1   
    33    16    17 1   
    34    16    29 1   
    35    17    18 2   
    36    17    19 2   
    37    17    20 1   
    38    20    21 ar  
    39    20    28 ar  
    40    21    22 ar  
    41    21    55 1   
    42    22    23 ar  
    43    22    56 1   
    44    23    24 1   
    45    23    27 ar  
    46    24    25 1   
    47    24    26 2   
    48    25    57 1   
    49    25    58 1   
    50    27    28 ar  
    51    27    59 1   
    52    28    60 1   
    53    29    30 1   
    54    29    61 1   
    55    29    62 1   
    56    30    31 ar  
    57    30    39 ar  
    58    31    32 ar  
    59    31    63 1   
    60    32    33 ar  
    61    32    64 1   
    62    33    34 1   
    63    33    38 ar  
    64    34    35 1   
    65    34    36 1   
    66    34    37 1   
    67    38    39 ar  
    68    38    65 1   
    69    39    66 1   
@<TRIPOS>SUBSTRUCTURE
     1 NK9         1 TEMP              0 ****  ****    0 ROOT
