@<TRIPOS>MOLECULE
NK9
   66    69     1     0     0
SMALL
abcg2


@<TRIPOS>ATOM
      1 C1          -0.9550    -3.8700    -0.8720 c5         1 NK9       0.142800
      2 N2          -1.2880    -3.3830    -2.1970 n7         1 NK9      -0.873400
      3 C3          -0.2990    -2.3590    -2.4880 c5         1 NK9       0.150800
      4 C4          -0.1460    -1.6010    -1.1580 c5         1 NK9       0.147500
      5 N5           1.2470    -1.2940    -0.8830 n7         1 NK9      -0.859400
      6 C6           1.7820    -0.2780    -1.7780 c3         1 NK9       0.199100
      7 C7           3.2200    -0.0010    -1.4400 ca         1 NK9      -0.011300
      8 C8           4.2310    -0.7550    -2.0220 ca         1 NK9      -0.235000
      9 C9           5.5570    -0.5140    -1.6700 ca         1 NK9       0.179600
     10 O10          6.5810    -1.2030    -2.2140 oh         1 NK9      -0.544100
     11 C11          5.8730     0.4580    -0.7280 ca         1 NK9      -0.191000
     12 C12          4.8540     1.2020    -0.1390 ca         1 NK9       0.179600
     13 O13          5.2050     2.1310     0.7660 oh         1 NK9      -0.544100
     14 C14          3.5250     0.9770    -0.5030 ca         1 NK9      -0.235000
     15 C15         -0.6990    -2.5790    -0.0940 c5         1 NK9       0.232500
     16 N16         -1.8740    -2.0500     0.6060 n3         1 NK9      -0.789500
     17 S17         -1.7700    -1.9570     2.2380 sy         1 NK9       1.177600
     18 O18         -2.9860    -1.3220     2.7240 o          1 NK9      -0.538500
     19 O19         -1.3790    -3.2280     2.8310 o          1 NK9      -0.538500
     20 C20         -0.4150    -0.8280     2.4770 ca         1 NK9      -0.256500
     21 C21         -0.4230     0.3930     1.8130 ca         1 NK9      -0.025500
     22 C22          0.5960     1.2970     2.0470 ca         1 NK9      -0.093500
     23 C23          1.6060     0.9970     2.9590 ca         1 NK9      -0.106600
     24 C24          2.6930     2.0020     3.1760 c          1 NK9       0.624700
     25 N25          3.2890     1.9890     4.3640 nt         1 NK9      -0.581000
     26 O26          3.0010     2.7900     2.2800 o          1 NK9      -0.640100
     27 C27          1.6040    -0.2330     3.6070 ca         1 NK9      -0.093500
     28 C28          0.5940    -1.1540     3.3670 ca         1 NK9      -0.025500
     29 C29         -3.1810    -1.9880    -0.0520 c3         1 NK9       0.276100
     30 C30         -3.3960    -0.7000    -0.8070 ca         1 NK9      -0.070300
     31 C31         -3.3880    -0.6890    -2.1960 ca         1 NK9      -0.108500
     32 C32         -3.5530     0.4950    -2.9010 ca         1 NK9      -0.068000
     33 C33         -3.7320     1.6870    -2.2130 ca         1 NK9      -0.194300
     34 C34         -3.9350     2.9760    -2.9440 c3         1 NK9       0.356300
     35 F35         -5.2280     3.3390    -2.9610 f          1 NK9      -0.113667
     36 F36         -3.2660     3.9860    -2.3720 f          1 NK9      -0.113667
     37 F37         -3.5350     2.9130    -4.2180 f          1 NK9      -0.113667
     38 C38         -3.7680     1.6850    -0.8210 ca         1 NK9      -0.068000
     39 C39         -3.6050     0.4990    -0.1280 ca         1 NK9      -0.108500
     40 H1          -1.7550    -4.4760    -0.4420 h1         1 NK9       0.053700
     41 H1A         -0.0370    -4.4740    -0.8500 h1         1 NK9       0.053700
     42 HN2         -1.2800    -4.1200    -2.8900 hn         1 NK9       0.421000
     43 H3           0.6800    -2.7780    -2.7650 h1         1 NK9       0.049200
     44 H3A         -0.6350    -1.7190    -3.3060 h1         1 NK9       0.049200
     45 H4          -0.7690    -0.6960    -1.1720 h1         1 NK9       0.050700
     46 HN5          1.3250    -0.9470     0.0680 hn         1 NK9       0.416000
     47 H6           1.7120    -0.6470    -2.8030 h1         1 NK9       0.039200
     48 H6A          1.2020     0.6570    -1.7430 h1         1 NK9       0.039200
     49 H8           3.9890    -1.5200    -2.7530 ha         1 NK9       0.118500
     50 HO10         6.2450    -1.8580    -2.8370 ho         1 NK9       0.482000
     51 H11          6.9050     0.6340    -0.4510 ha         1 NK9       0.140000
     52 HO13         4.4170     2.4760     1.2260 ho         1 NK9       0.482000
     53 H14          2.7310     1.5700    -0.0650 ha         1 NK9       0.118500
     54 H15          0.0770    -2.7610     0.6520 h1         1 NK9       0.073700
     55 H21         -1.2030     0.6340     1.1010 ha         1 NK9       0.141500
     56 H22          0.5960     2.2450     1.5250 ha         1 NK9       0.131500
     57 HN25         2.9740     1.4140     5.1260 hn         1 NK9       0.325000
     58 HN2A         4.0370     2.6370     4.5590 hn         1 NK9       0.325000
     59 H27          2.3990    -0.5060     4.2890 ha         1 NK9       0.131500
     60 H28          0.6100    -2.1110     3.8690 ha         1 NK9       0.141500
     61 H29         -3.2620    -2.8300    -0.7370 h1         1 NK9       0.077200
     62 H29A        -3.9680    -2.1140     0.6890 h1         1 NK9       0.077200
     63 H31         -3.2270    -1.6150    -2.7320 ha         1 NK9       0.137500
     64 H32         -3.5320     0.4700    -3.9820 ha         1 NK9       0.130500
     65 H38         -3.9250     2.6020    -0.2670 ha         1 NK9       0.130500
     66 H39         -3.6470     0.5100     0.9540 ha         1 NK9       0.137500
@<TRIPOS>BOND
     1     1     2 1   
     2     1    15 1   
     3     1    40 1   
     4     1    41 1   
     5     2     3 1   
     6     2    42 1   
     7     3     4 1   
     8     3    43 1   
     9     3    44 1   
    10     4     5 1   
    11     4    15 1   
    12     4    45 1   
    13     5     6 1   
    14     5    46 1   
    15     6     7 1   
    16     6    47 1   
    17     6    48 1   
    18     7     8 ar  
    19     7    14 ar  
    20     8     9 ar  
    21     8    49 1   
    22     9    10 1   
    23     9    11 ar  
    24    10    50 1   
    25    11    12 ar  
    26    11    51 1   
    27    12    13 1   
    28    12    14 ar  
    29    13    52 1   
    30    14    53 1   
    31    15    16 1   
    32    15    54 1   
    33    16    17 1   
    34    16    29 1   
    35    17    18 2   
    36    17    19 2   
    37    17    20 1   
    38    20    21 ar  
    39    20    28 ar  
    40    21    22 ar  
    41    21    55 1   
    42    22    23 ar  
    43    22    56 1   
    44    23    24 1   
    45    23    27 ar  
    46    24    25 1   
    47    24    26 2   
    48    25    57 1   
    49    25    58 1   
    50    27    28 ar  
    51    27    59 1   
    52    28    60 1   
    53    29    30 1   
    54    29    61 1   
    55    29    62 1   
    56    30    31 ar  
    57    30    39 ar  
    58    31    32 ar  
    59    31    63 1   
    60    32    33 ar  
    61    32    64 1   
    62    33    34 1   
    63    33    38 ar  
    64    34    35 1   
    65    34    36 1   
    66    34    37 1   
    67    38    39 ar  
    68    38    65 1   
    69    39    66 1   
@<TRIPOS>SUBSTRUCTURE
     1 NK9         1 TEMP              0 ****  ****    0 ROOT
