@<TRIPOS>MOLECULE
NKA
   90    95     1     0     0
SMALL
bcc


@<TRIPOS>ATOM
      1 CAE         -6.6440   -15.7730    20.4340 c5         1 NKA      -0.132700
      2 CAH         -7.9660   -15.9720    21.1680 c5         1 NKA      -0.070400
      3 CAG         -8.6240   -16.9780    20.2250 c5         1 NKA      -0.101700
      4 CAJ         -7.8830   -18.3170    20.3620 c6         1 NKA       0.142400
      5 OAI         -6.5810   -18.1730    20.9080 os         1 NKA      -0.408600
      6 CAA         -5.8430   -17.0950    20.4320 c5         1 NKA       0.339900
      7 OAB         -5.4310   -17.3270    19.1100 os         1 NKA      -0.424600
      8 CAC         -5.8860   -16.3070    18.2410 c5         1 NKA       0.146400
      9 CAD         -7.0270   -15.6100    18.9560 c5         1 NKA      -0.122700
     10 CAF         -8.4280   -16.2670    18.8810 c5         1 NKA       0.177100
     11 OAK         -8.6270   -17.1820    17.8140 os         1 NKA      -0.431900
     12 CAL         -8.7210   -16.6860    16.5730 c          1 NKA       0.757100
     13 OAM         -8.6030   -15.5070    16.3080 o          1 NKA      -0.587000
     14 NAN         -8.9660   -17.6730    15.6910 ns         1 NKA      -0.570900
     15 CAO         -8.9110   -17.4900    14.2540 c3         1 NKA       0.095700
     16 CAW         -7.8760   -18.4590    13.6670 c3         1 NKA      -0.041100
     17 CBH         -6.5340   -18.2670    14.3190 ca         1 NKA      -0.104300
     18 CBI         -5.7740   -17.1260    14.0650 ca         1 NKA      -0.098500
     19 CBJ         -4.5720   -16.9000    14.7190 ca         1 NKA      -0.168500
     20 CBK         -4.1330   -17.8330    15.6380 ca         1 NKA       0.133900
     21 FBU         -2.9900   -17.6000    16.3070 f          1 NKA      -0.144900
     22 CBL         -4.8440   -18.9850    15.9050 ca         1 NKA      -0.168500
     23 CBM         -6.0450   -19.1900    15.2390 ca         1 NKA      -0.098500
     24 CAT        -10.3190   -17.6330    13.6570 c3         1 NKA       0.135100
     25 OBO        -10.7830   -18.9620    13.6990 oh         1 NKA      -0.604800
     26 CAP        -10.4300   -17.2010    12.1960 c3         1 NKA       0.209800
     27 NAQ        -10.2790   -15.7550    12.0220 n3         1 NKA      -0.728500
     28 CBP        -11.5350   -15.0010    11.9160 c3         1 NKA       0.201800
     29 CBQ        -12.2120   -14.7280    13.2580 c3         1 NKA      -0.061700
     30 CBS        -11.3040   -13.9430    14.1940 c3         1 NKA      -0.092100
     31 CBR        -13.5120   -13.9740    12.9970 c3         1 NKA      -0.092100
     32 SAR         -9.0370   -15.2250    11.0640 sy         1 NKA       1.305200
     33 OAU         -7.8740   -16.0460    11.3640 o          1 NKA      -0.606800
     34 OAV         -8.9460   -13.7840    11.2410 o          1 NKA      -0.606800
     35 CAS         -9.5190   -15.5470     9.3950 ca         1 NKA      -0.323500
     36 CAX        -10.2910   -14.5900     8.7270 ca         1 NKA       0.000000
     37 CBB         -9.1860   -16.7700     8.8110 ca         1 NKA      -0.038000
     38 CBA         -9.6170   -17.0950     7.5320 ca         1 NKA      -0.119000
     39 CAZ        -10.3950   -16.1660     6.8530 ca         1 NKA       0.163400
     40 NBE        -10.9580   -16.1880     5.6040 nc         1 NKA      -0.673100
     41 CAY        -10.7040   -14.9540     7.4750 ca         1 NKA      -0.023900
     42 OBC        -11.4610   -14.2390     6.5980 os         1 NKA      -0.304700
     43 CBD        -11.5700   -15.0390     5.5130 cd         1 NKA       0.797500
     44 NBF        -12.2930   -14.5890     4.4970 nu         1 NKA      -0.831200
     45 CBG        -12.8460   -13.2420     4.3800 c3         1 NKA       0.247500
     46 CBT        -13.9920   -13.2810     3.3820 c3         1 NKA      -0.113600
     47 CBN        -11.7810   -12.2310     3.9700 c3         1 NKA      -0.113600
     48 H1          -6.0340   -14.9530    20.8130 hc         1 NKA       0.077700
     49 H2          -8.5320   -15.0390    21.2070 hc         1 NKA       0.060200
     50 H3          -7.8560   -16.3340    22.1910 hc         1 NKA       0.060200
     51 H4          -9.6850   -17.1380    20.4250 hc         1 NKA       0.069700
     52 H5          -8.4240   -18.9480    21.0680 h1         1 NKA       0.054700
     53 H6          -7.8490   -18.8610    19.4120 h1         1 NKA       0.054700
     54 H7          -4.9660   -17.0470    21.0840 h2         1 NKA       0.092700
     55 H8          -6.1460   -16.7570    17.2820 h1         1 NKA       0.056200
     56 H9          -5.0850   -15.5830    18.0500 h1         1 NKA       0.056200
     57 H10         -7.0860   -14.5670    18.6480 hc         1 NKA       0.086700
     58 H11         -9.1770   -15.4730    18.8100 h1         1 NKA       0.060700
     59 H12         -8.9800   -18.6180    16.0460 hn         1 NKA       0.320500
     60 H13         -8.5760   -16.4680    14.0710 h1         1 NKA       0.100700
     61 H14         -8.2140   -19.4870    13.8080 hc         1 NKA       0.066200
     62 H15         -7.7970   -18.2940    12.5920 hc         1 NKA       0.066200
     63 H16         -6.1290   -16.3950    13.3490 ha         1 NKA       0.142500
     64 H17         -3.9930   -16.0070    14.5230 ha         1 NKA       0.151500
     65 H18         -4.4780   -19.7040    16.6270 ha         1 NKA       0.151500
     66 H19         -6.6130   -20.0880    15.4510 ha         1 NKA       0.142500
     67 H20        -10.9700   -16.9810    14.2530 h1         1 NKA       0.054700
     68 H21        -10.9520   -19.2050    14.6140 ho         1 NKA       0.412000
     69 H22        -11.4200   -17.4850    11.8290 h1         1 NKA       0.063200
     70 H23         -9.7150   -17.7530    11.5840 h1         1 NKA       0.063200
     71 H24        -11.3390   -14.0340    11.4520 h1         1 NKA       0.050200
     72 H25        -12.2220   -15.5390    11.2530 h1         1 NKA       0.050200
     73 H26        -12.4730   -15.6810    13.7280 hc         1 NKA       0.046700
     74 H27        -11.8100   -13.7350    15.1370 hc         1 NKA       0.040200
     75 H28        -10.3850   -14.4800    14.4260 hc         1 NKA       0.040200
     76 H29        -11.0260   -12.9850    13.7480 hc         1 NKA       0.040200
     77 H30        -14.0460   -13.7930    13.9300 hc         1 NKA       0.040200
     78 H31        -13.3160   -13.0050    12.5330 hc         1 NKA       0.040200
     79 H32        -14.1770   -14.5320    12.3370 hc         1 NKA       0.040200
     80 H33        -10.5400   -13.6310     9.1590 ha         1 NKA       0.168000
     81 H34         -8.5730   -17.4790     9.3500 ha         1 NKA       0.153000
     82 H35         -9.3470   -18.0410     7.0820 ha         1 NKA       0.157000
     83 H36        -12.2920   -15.1740     3.6740 hn         1 NKA       0.463800
     84 H37        -13.2510   -12.9630     5.3540 h1         1 NKA       0.070700
     85 H38        -14.7640   -13.9860     3.6900 hc         1 NKA       0.049033
     86 H39        -14.4460   -12.2950     3.3000 hc         1 NKA       0.049033
     87 H40        -13.6370   -13.5680     2.3900 hc         1 NKA       0.049033
     88 H41        -12.2150   -11.2330     3.9050 hc         1 NKA       0.049033
     89 H42        -10.9610   -12.1910     4.6880 hc         1 NKA       0.049033
     90 H43        -11.3670   -12.4830     2.9920 hc         1 NKA       0.049033
@<TRIPOS>BOND
     1     1     2 1   
     2     1     6 1   
     3     1     9 1   
     4     1    48 1   
     5     2     3 1   
     6     2    49 1   
     7     2    50 1   
     8     3     4 1   
     9     3    10 1   
    10     3    51 1   
    11     4     5 1   
    12     4    52 1   
    13     4    53 1   
    14     5     6 1   
    15     6     7 1   
    16     6    54 1   
    17     7     8 1   
    18     8     9 1   
    19     8    55 1   
    20     8    56 1   
    21     9    10 1   
    22     9    57 1   
    23    10    11 1   
    24    10    58 1   
    25    11    12 1   
    26    12    13 2   
    27    12    14 1   
    28    14    15 1   
    29    14    59 1   
    30    15    16 1   
    31    15    24 1   
    32    15    60 1   
    33    16    17 1   
    34    16    61 1   
    35    16    62 1   
    36    17    18 ar  
    37    17    23 ar  
    38    18    19 ar  
    39    18    63 1   
    40    19    20 ar  
    41    19    64 1   
    42    20    21 1   
    43    20    22 ar  
    44    22    23 ar  
    45    22    65 1   
    46    23    66 1   
    47    24    25 1   
    48    24    26 1   
    49    24    67 1   
    50    25    68 1   
    51    26    27 1   
    52    26    69 1   
    53    26    70 1   
    54    27    28 1   
    55    27    32 1   
    56    28    29 1   
    57    28    71 1   
    58    28    72 1   
    59    29    30 1   
    60    29    31 1   
    61    29    73 1   
    62    30    74 1   
    63    30    75 1   
    64    30    76 1   
    65    31    77 1   
    66    31    78 1   
    67    31    79 1   
    68    32    33 2   
    69    32    34 2   
    70    32    35 1   
    71    35    36 ar  
    72    35    37 ar  
    73    36    41 ar  
    74    36    80 1   
    75    37    38 ar  
    76    37    81 1   
    77    38    39 ar  
    78    38    82 1   
    79    39    40 1   
    80    39    41 ar  
    81    40    43 2   
    82    41    42 1   
    83    42    43 1   
    84    43    44 1   
    85    44    45 1   
    86    44    83 1   
    87    45    46 1   
    88    45    47 1   
    89    45    84 1   
    90    46    85 1   
    91    46    86 1   
    92    46    87 1   
    93    47    88 1   
    94    47    89 1   
    95    47    90 1   
@<TRIPOS>SUBSTRUCTURE
     1 NKA         1 TEMP              0 ****  ****    0 ROOT
