@<TRIPOS>MOLECULE
NKA
   90    95     1     0     0
SMALL
No Charge or Current Charge


@<TRIPOS>ATOM
      1 CAE         -6.6560   -16.3660    20.6740 c5         1 NKA      -0.132700
      2 CAH         -8.0540   -16.1750    21.3480 c5         1 NKA      -0.070400
      3 CAG         -8.9260   -16.9720    20.3410 c5         1 NKA      -0.101700
      4 CAJ         -8.6520   -18.4950    20.4480 c6         1 NKA       0.165600
      5 OAI         -7.3530   -18.7510    21.0250 os         1 NKA      -0.455000
      6 CAA         -6.2650   -17.9020    20.5870 c5         1 NKA       0.386300
      7 OAB         -6.0460   -18.2130    19.1980 os         1 NKA      -0.471000
      8 CAC         -6.0010   -16.9840    18.4480 c5         1 NKA       0.169600
      9 CAD         -6.9370   -15.9840    19.1950 c5         1 NKA      -0.122700
     10 CAF         -8.4870   -16.2640    19.0140 c5         1 NKA       0.200300
     11 OAK         -8.7740   -17.1260    17.8840 os         1 NKA      -0.455100
     12 CAL         -8.6910   -16.5160    16.6650 c          1 NKA       0.641100
     13 OAM         -8.4480   -15.3370    16.4550 o          1 NKA      -0.538000
     14 NAN         -8.8760   -17.4640    15.7000 ns         1 NKA      -0.503900
     15 CAO         -8.7290   -17.2330    14.2530 c3         1 NKA       0.095700
     16 CAW         -7.6160   -18.1550    13.6830 c3         1 NKA      -0.041100
     17 CBH         -6.2810   -17.9850    14.4040 ca         1 NKA      -0.104300
     18 CBI         -5.5760   -16.7670    14.3090 ca         1 NKA      -0.080500
     19 CBJ         -4.3520   -16.6030    14.9820 ca         1 NKA      -0.150500
     20 CBK         -3.8280   -17.6570    15.7450 ca         1 NKA       0.169000
     21 FBU         -2.6540   -17.4960    16.3940 f          1 NKA      -0.180000
     22 CBL         -4.5190   -18.8730    15.8420 ca         1 NKA      -0.150500
     23 CBM         -5.7450   -19.0380    15.1740 ca         1 NKA      -0.080500
     24 CAT        -10.1060   -17.3240    13.5230 c3         1 NKA       0.158300
     25 OBO        -10.5780   -18.6870    13.4940 oh         1 NKA      -0.667000
     26 CAP        -10.0850   -16.7400    12.0760 c3         1 NKA       0.209800
     27 NAQ         -9.8000   -15.2750    11.9850 n3         1 NKA      -0.728500
     28 CBP        -11.0210   -14.4310    11.8620 c3         1 NKA       0.201800
     29 CBQ        -11.9910   -14.4330    13.0740 c3         1 NKA      -0.061700
     30 CBS        -11.3110   -13.9200    14.3670 c3         1 NKA      -0.092100
     31 CBR        -13.2630   -13.6100    12.7640 c3         1 NKA      -0.092100
     32 SAR         -8.5830   -14.8770    10.8520 sy         1 NKA       1.163600
     33 OAU         -7.4390   -15.7400    11.1600 o          1 NKA      -0.536000
     34 OAV         -8.4410   -13.4170    10.8910 o          1 NKA      -0.536000
     35 CAS         -9.3190   -15.3690     9.2850 ca         1 NKA      -0.323500
     36 CAX        -10.1310   -14.4520     8.5760 ca         1 NKA       0.018000
     37 CBB         -9.0830   -16.6680     8.7540 ca         1 NKA      -0.020000
     38 CBA         -9.6630   -17.0600     7.5270 ca         1 NKA      -0.101000
     39 CAZ        -10.4710   -16.1440     6.8420 ca         1 NKA       0.163400
     40 NBE        -11.1380   -16.3200     5.6240 nc         1 NKA      -0.673100
     41 CAY        -10.6800   -14.8920     7.3690 ca         1 NKA      -0.023900
     42 OBC        -11.4780   -14.2340     6.5150 os         1 NKA      -0.304700
     43 CBD        -11.7140   -15.1240     5.5100 cd         1 NKA       0.797500
     44 NBF        -12.4860   -14.8140     4.4550 nu         1 NKA      -0.886400
     45 CBG        -13.2570   -13.5890     4.2670 c3         1 NKA       0.247500
     46 CBT        -14.5440   -13.9130     3.4890 c3         1 NKA      -0.113600
     47 CBN        -12.3860   -12.5430     3.5480 c3         1 NKA      -0.113600
     48 H1          -5.8620   -15.7660    21.1330 hc         1 NKA       0.077700
     49 H2          -8.3430   -15.1180    21.4050 hc         1 NKA       0.060200
     50 H3          -8.0970   -16.5780    22.3670 hc         1 NKA       0.060200
     51 H4          -9.9980   -16.8370    20.5220 hc         1 NKA       0.069700
     52 H5          -9.4050   -18.9620    21.0980 h1         1 NKA       0.054700
     53 H6          -8.7200   -18.9860    19.4670 h1         1 NKA       0.054700
     54 H7          -5.3600   -18.1120    21.1730 h2         1 NKA       0.092700
     55 H8          -6.2750   -17.1670    17.4020 h1         1 NKA       0.056200
     56 H9          -4.9660   -16.6170    18.4580 h1         1 NKA       0.056200
     57 H10         -6.6930   -14.9400    18.9680 hc         1 NKA       0.086700
     58 H11         -9.0430   -15.3200    18.9110 h1         1 NKA       0.060700
     59 H12         -9.0130   -18.4070    16.0370 hn         1 NKA       0.320500
     60 H13         -8.3820   -16.1990    14.1170 h1         1 NKA       0.100700
     61 H14         -7.9470   -19.1990    13.7440 hc         1 NKA       0.066200
     62 H15         -7.4750   -17.9500    12.6170 hc         1 NKA       0.066200
     63 H16         -5.9780   -15.9480    13.7160 ha         1 NKA       0.124500
     64 H17         -3.8110   -15.6630    14.9110 ha         1 NKA       0.133500
     65 H18         -4.1080   -19.6830    16.4400 ha         1 NKA       0.133500
     66 H19         -6.2790   -19.9830    15.2590 ha         1 NKA       0.124500
     67 H20        -10.8120   -16.7240    14.1080 h1         1 NKA       0.054700
     68 H21        -10.8370   -18.9220    14.4110 ho         1 NKA       0.451000
     69 H22        -11.0520   -16.9590    11.6030 h1         1 NKA       0.063200
     70 H23         -9.3510   -17.3270    11.5110 h1         1 NKA       0.063200
     71 H24        -10.7420   -13.3810    11.7040 h1         1 NKA       0.050200
     72 H25        -11.5860   -14.7370    10.9710 h1         1 NKA       0.050200
     73 H26        -12.3290   -15.4600    13.2450 hc         1 NKA       0.046700
     74 H27        -11.9950   -13.9950    15.2210 hc         1 NKA       0.040200
     75 H28        -10.4140   -14.5020    14.6020 hc         1 NKA       0.040200
     76 H29        -11.0120   -12.8700    14.2590 hc         1 NKA       0.040200
     77 H30        -13.9660   -13.6510    13.6050 hc         1 NKA       0.040200
     78 H31        -13.0140   -12.5590    12.5760 hc         1 NKA       0.040200
     79 H32        -13.7740   -14.0050    11.8770 hc         1 NKA       0.040200
     80 H33        -10.3290   -13.4470     8.9430 ha         1 NKA       0.150000
     81 H34         -8.4490   -17.3750     9.2870 ha         1 NKA       0.135000
     82 H35         -9.4860   -18.0520     7.1190 ha         1 NKA       0.139000
     83 H36        -12.6150   -15.5950     3.8210 hn         1 NKA       0.519000
     84 H37        -13.5490   -13.1780     5.2450 h1         1 NKA       0.070700
     85 H38        -15.1490   -14.6500     4.0320 hc         1 NKA       0.049033
     86 H39        -15.1500   -13.0090     3.3590 hc         1 NKA       0.049033
     87 H40        -14.3140   -14.3170     2.4950 hc         1 NKA       0.049033
     88 H41        -12.9450   -11.6100     3.4080 hc         1 NKA       0.049033
     89 H42        -11.4900   -12.3150     4.1370 hc         1 NKA       0.049033
     90 H43        -12.0700   -12.9060     2.5630 hc         1 NKA       0.049033
@<TRIPOS>BOND
     1     1     2 1   
     2     1     6 1   
     3     1     9 1   
     4     1    48 1   
     5     2     3 1   
     6     2    49 1   
     7     2    50 1   
     8     3     4 1   
     9     3    10 1   
    10     3    51 1   
    11     4     5 1   
    12     4    52 1   
    13     4    53 1   
    14     5     6 1   
    15     6     7 1   
    16     6    54 1   
    17     7     8 1   
    18     8     9 1   
    19     8    55 1   
    20     8    56 1   
    21     9    10 1   
    22     9    57 1   
    23    10    11 1   
    24    10    58 1   
    25    11    12 1   
    26    12    13 2   
    27    12    14 1   
    28    14    15 1   
    29    14    59 1   
    30    15    16 1   
    31    15    24 1   
    32    15    60 1   
    33    16    17 1   
    34    16    61 1   
    35    16    62 1   
    36    17    18 ar  
    37    17    23 ar  
    38    18    19 ar  
    39    18    63 1   
    40    19    20 ar  
    41    19    64 1   
    42    20    21 1   
    43    20    22 ar  
    44    22    23 ar  
    45    22    65 1   
    46    23    66 1   
    47    24    25 1   
    48    24    26 1   
    49    24    67 1   
    50    25    68 1   
    51    26    27 1   
    52    26    69 1   
    53    26    70 1   
    54    27    28 1   
    55    27    32 1   
    56    28    29 1   
    57    28    71 1   
    58    28    72 1   
    59    29    30 1   
    60    29    31 1   
    61    29    73 1   
    62    30    74 1   
    63    30    75 1   
    64    30    76 1   
    65    31    77 1   
    66    31    78 1   
    67    31    79 1   
    68    32    33 2   
    69    32    34 2   
    70    32    35 1   
    71    35    36 ar  
    72    35    37 ar  
    73    36    41 ar  
    74    36    80 1   
    75    37    38 ar  
    76    37    81 1   
    77    38    39 ar  
    78    38    82 1   
    79    39    40 1   
    80    39    41 ar  
    81    40    43 2   
    82    41    42 1   
    83    42    43 1   
    84    43    44 1   
    85    44    45 1   
    86    44    83 1   
    87    45    46 1   
    88    45    47 1   
    89    45    84 1   
    90    46    85 1   
    91    46    86 1   
    92    46    87 1   
    93    47    88 1   
    94    47    89 1   
    95    47    90 1   
@<TRIPOS>SUBSTRUCTURE
     1 NKA         1 TEMP              0 ****  ****    0 ROOT
