@<TRIPOS>MOLECULE
NKB
   14    15     1     0     0
SMALL
abcg2


@<TRIPOS>ATOM
      1 C1          69.2940    18.8040    24.7630 ca         1 NKB       0.047100
      2 C2          69.6010    19.2740    23.4570 ca         1 NKB      -0.042900
      3 C3          68.9300    18.8240    22.3450 ca         1 NKB       0.016000
      4 C4          68.2960    17.8650    24.9550 ca         1 NKB      -0.016900
      5 C6          67.6230    17.4130    23.8220 ca         1 NKB      -0.058200
      6 BR1         67.8140    17.1870    26.6230 br         1 NKB      -0.038100
      7 N5          66.6250    16.5320    23.6060 na         1 NKB      -0.055400
      8 N9          66.3410    16.4610    22.3140 nc         1 NKB      -0.143400
      9 N8          67.0990    17.2500    21.6600 nd         1 NKB      -0.209400
     10 C7          67.9270    17.8780    22.5450 ca         1 NKB       0.017400
     11 BR2         70.9580    20.5480    23.2030 br         1 NKB      -0.048100
     12 BR3         70.2370    19.4540    26.2380 br         1 NKB      -0.021100
     13 H1          69.1630    19.1820    21.3520 ha         1 NKB       0.157000
     14 H2          66.1120    15.9610    24.2620 hn         1 NKB       0.396000
@<TRIPOS>BOND
     1     1     2 ar  
     2     1     4 ar  
     3     1    12 1   
     4     2     3 ar  
     5     2    11 1   
     6     3    10 ar  
     7     3    13 1   
     8     4     5 ar  
     9     4     6 1   
    10     5     7 1   
    11     5    10 ar  
    12     7     8 1   
    13     7    14 1   
    14     8     9 2   
    15     9    10 1   
@<TRIPOS>SUBSTRUCTURE
     1 NKB         1 TEMP              0 ****  ****    0 ROOT
