@<TRIPOS>MOLECULE
NKB
   14    15     1     0     0
SMALL
No Charge or Current Charge


@<TRIPOS>ATOM
      1 C1          69.3080    18.8170    24.7680 ca         1 NKB       0.047100
      2 C2          69.6260    19.2960    23.4670 ca         1 NKB      -0.042900
      3 C3          68.9240    18.8190    22.3370 ca         1 NKB       0.016000
      4 C4          68.2810    17.8550    24.9310 ca         1 NKB      -0.016900
      5 C6          67.6160    17.4140    23.7790 ca         1 NKB      -0.058200
      6 Br1         67.7960    17.1610    26.6550 br         1 NKB      -0.038100
      7 N5          66.6040    16.5100    23.6250 na         1 NKB      -0.055400
      8 N9          66.2960    16.4250    22.2710 nc         1 NKB      -0.143400
      9 N8          67.0970    17.2550    21.6010 nd         1 NKB      -0.209400
     10 C7          67.9150    17.8670    22.5370 ca         1 NKB       0.017400
     11 Br2         71.0090    20.5990    23.2000 br         1 NKB      -0.048100
     12 Br3         70.2670    19.4710    26.3020 br         1 NKB      -0.021100
     13 H1          69.1580    19.1780    21.3380 ha         1 NKB       0.157000
     14 H2          66.1220    15.9670    24.3350 hn         1 NKB       0.396000
@<TRIPOS>BOND
     1     1     2 ar  
     2     1     4 ar  
     3     1    12 1   
     4     2     3 ar  
     5     2    11 1   
     6     3    10 ar  
     7     3    13 1   
     8     4     5 ar  
     9     4     6 1   
    10     5     7 1   
    11     5    10 ar  
    12     7     8 1   
    13     7    14 1   
    14     8     9 2   
    15     9    10 1   
@<TRIPOS>SUBSTRUCTURE
     1 NKB         1 TEMP              0 ****  ****    0 ROOT
