@<TRIPOS>MOLECULE
NKD
  107   110     1     0     0
SMALL
abcg2


@<TRIPOS>ATOM
      1 C10         -6.9290     0.3970     0.6170 c3         1 NKD      -0.037300
      2 C13         -7.4760     2.2640    -2.2580 ca         1 NKD      -0.147000
      3 C15         -7.8890     4.6270    -2.0170 ca         1 NKD      -0.226000
      4 C17         -8.4760     3.1000    -0.2420 ca         1 NKD      -0.140000
      5 C22         -1.0000     1.1420     0.1620 c          1 NKD       0.590100
      6 C26          1.8530     2.9110     1.7480 c3         1 NKD       0.097700
      7 C01         -3.7280    -4.5390     2.0350 c3         1 NKD       0.060900
      8 C04         -1.7420    -1.1620     0.6990 c3         1 NKD      -0.089400
      9 C05         -2.1140     0.3270     0.7970 c3         1 NKD       0.051700
     10 C07         -4.5350     0.6970     0.8140 c          1 NKD       0.649100
     11 C11         -8.0260     0.6330    -0.4300 c3         1 NKD      -0.040100
     12 C12         -8.0010     2.0260    -0.9950 ca         1 NKD      -0.010300
     13 C14         -7.4170     3.5580    -2.7730 ca         1 NKD       0.128100
     14 C16         -8.4160     4.3860    -0.7550 ca         1 NKD      -0.078000
     15 C19         -7.0490    -1.0460     1.1740 c          1 NKD       0.713000
     16 C25          1.0810     2.3460     0.5340 c3         1 NKD       0.022700
     17 C27          1.0610     3.9930     2.4730 c3         1 NKD      -0.107100
     18 C32          5.6270     3.2570     1.3430 c3         1 NKD       0.097500
     19 C34          5.9950     2.4490     0.0720 c3         1 NKD      -0.084100
     20 C35          7.2630     2.9540    -0.5500 ca         1 NKD      -0.042300
     21 C36          8.4790     2.3450    -0.2660 ca         1 NKD      -0.150000
     22 C37          9.6650     2.8360    -0.8090 ca         1 NKD       0.139100
     23 C38          9.6360     3.9530    -1.6390 ca         1 NKD      -0.210000
     24 C39          8.4200     4.5630    -1.9180 ca         1 NKD      -0.068000
     25 C40          7.2400     4.0740    -1.3810 ca         1 NKD      -0.143000
     26 C42          1.9960     1.4830    -0.3360 c          1 NKD       0.609100
     27 C45          2.8890    -0.7460    -0.6010 c2         1 NKD      -0.047400
     28 C46          2.6910    -2.0500    -0.4560 c2         1 NKD      -0.058100
     29 C48          1.6410    -3.9230     0.2970 c5         1 NKD       0.342700
     30 C49          3.0320    -4.3600    -0.1610 c5         1 NKD       0.106300
     31 C51          3.4250    -3.1950    -1.0930 c5         1 NKD       0.160500
     32 C54          0.0550    -3.5390    -1.5880 cc         1 NKD       0.002600
     33 C55         -0.9550    -3.9100    -2.3890 cd         1 NKD      -0.368200
     34 C56         -1.5450    -5.2170    -2.2420 c          1 NKD       0.598200
     35 C59          0.0920    -5.6320    -0.4370 c          1 NKD       0.625000
     36 N06         -3.3520     0.6220     0.1300 ns         1 NKD      -0.517900
     37 N09         -5.6420     0.6790     0.0270 ns         1 NKD      -0.453900
     38 N24         -0.0650     1.6110     1.0120 ns         1 NKD      -0.526900
     39 N33          6.5740     3.1490     2.4320 n8         1 NKD      -0.990200
     40 N53          0.5820    -4.3560    -0.6290 n          1 NKD      -0.336000
     41 N58         -0.9360    -5.9880    -1.2640 ns         1 NKD      -0.459500
     42 O08         -4.5830     0.8340     2.0310 o          1 NKD      -0.651100
     43 O18         -6.8910     3.7160    -4.0060 oh         1 NKD      -0.543100
     44 O20         -8.0420    -1.2510     1.9000 o          1 NKD      -0.726000
     45 O21         -6.1820    -1.8700     0.8310 o          1 NKD      -0.726000
     46 O23         -0.9280     1.3130    -1.0420 o          1 NKD      -0.591100
     47 O31          4.2150     1.7990     2.5810 o          1 NKD      -0.597100
     48 O41         10.8070     2.1910    -0.4970 oh         1 NKD      -0.535100
     49 O43          2.5840     1.9450    -1.2970 o          1 NKD      -0.597100
     50 O47          1.6820    -2.5260     0.3430 os         1 NKD      -0.332100
     51 O50          3.8550    -4.3900     0.9680 oh         1 NKD      -0.638000
     52 O52          4.7980    -2.9480    -1.1360 oh         1 NKD      -0.644000
     53 O57         -2.4770    -5.6600    -2.8880 o          1 NKD      -0.529000
     54 O60          0.5510    -6.3810     0.4010 o          1 NKD      -0.569000
     55 S02         -2.3130    -3.7910     1.1960 ss         1 NKD      -0.521000
     56 H101        -7.0910     1.1000     1.4370 h1         1 NKD       0.070700
     57 H131        -7.1060     1.4400    -2.8580 ha         1 NKD       0.122000
     58 H151        -7.8470     5.6380    -2.4070 ha         1 NKD       0.096000
     59 H171        -8.8900     2.9260     0.7440 ha         1 NKD       0.122000
     60 H261         2.0230     2.0900     2.4440 h1         1 NKD       0.091700
     61 H013        -3.6880    -4.3660     3.1100 h1         1 NKD       0.068700
     62 H011        -4.6610    -4.1360     1.6420 h1         1 NKD       0.068700
     63 H012        -3.6980    -5.6110     1.8530 h1         1 NKD       0.068700
     64 H032        -2.6660    -1.8190     2.5330 h1         1 NKD       0.095200
     65 H031        -3.7430    -1.8820     1.1340 h1         1 NKD       0.095200
     66 H042        -0.7310    -1.3140     1.0850 hc         1 NKD       0.049700
     67 H041        -1.7280    -1.4510    -0.3560 hc         1 NKD       0.049700
     68 H051        -2.2280     0.6020     1.8470 h1         1 NKD       0.092700
     69 H112        -7.9200    -0.0970    -1.2390 hc         1 NKD       0.060700
     70 H111        -8.9880     0.4380     0.0450 hc         1 NKD       0.060700
     71 H161        -8.7860     5.2190    -0.1700 ha         1 NKD       0.098000
     72 H251         0.7450     3.1700    -0.1020 h1         1 NKD       0.093700
     73 H272         0.8740     4.8620     1.8420 hc         1 NKD       0.048700
     74 H273         0.0950     3.6180     2.8080 hc         1 NKD       0.048700
     75 H271         1.6090     4.3220     3.3550 hc         1 NKD       0.048700
     76 H293         3.6120     5.4310     1.0230 h1         1 NKD       0.043033
     77 H291         3.8660     4.3830    -0.3850 h1         1 NKD       0.043033
     78 H292         2.2510     4.7980     0.1170 h1         1 NKD       0.043033
     79 H321         5.5770     4.3130     1.0720 h1         1 NKD       0.070700
     80 H341         6.0980     1.3970     0.3510 hc         1 NKD       0.074200
     81 H342         5.1780     2.4990    -0.6520 hc         1 NKD       0.074200
     82 H361         8.5120     1.4710     0.3760 ha         1 NKD       0.128000
     83 H381        10.5520     4.3430    -2.0680 ha         1 NKD       0.110000
     84 H391         8.4000     5.4290    -2.5670 ha         1 NKD       0.112000
     85 H401         6.2980     4.5590    -1.6090 ha         1 NKD       0.118000
     86 H451         3.6750    -0.3790    -1.2440 h4         1 NKD       0.225000
     87 H481         1.3890    -4.3010     1.2870 h2         1 NKD       0.142700
     88 H491         3.0120    -5.3210    -0.6860 h1         1 NKD       0.072700
     89 H511         3.0260    -3.3880    -2.0970 h1         1 NKD       0.057700
     90 H541         0.4820    -2.5520    -1.6820 h4         1 NKD       0.216000
     91 H551        -1.3420    -3.2280    -3.1300 ha         1 NKD       0.224000
     92 H061        -3.3810     0.4040    -0.8540 hn         1 NKD       0.311500
     93 H091        -5.5160     0.3260    -0.9100 hn         1 NKD       0.285500
     94 H241        -0.1940     1.4780     2.0040 hn         1 NKD       0.328500
     95 H331         6.7230     2.1760     2.6720 hn         1 NKD       0.409000
     96 H2           7.4700     3.5130     2.1350 hn         1 NKD       0.409000
     97 H581        -1.3020    -6.9210    -1.1190 hn         1 NKD       0.338500
     98 H181        -6.8890     4.6470    -4.2520 ho         1 NKD       0.452000
     99 H4          11.5590     2.6100    -0.9300 ho         1 NKD       0.463000
    100 H501         4.7320    -4.0820     0.7040 ho         1 NKD       0.464000
    101 H521         5.1880    -3.4840    -1.8350 ho         1 NKD       0.453000
    102 H441         1.5670    -0.1030     0.8550 hn         1 NKD       0.340500
    103 N28          3.1680     3.3830     1.3470 n          1 NKD      -0.407800
    104 C03         -2.7160    -2.0410     1.4650 c3         1 NKD       0.071600
    105 C29          3.2420     4.5560     0.4890 c3         1 NKD       0.091300
    106 C30          4.2700     2.7580     1.8240 c          1 NKD       0.614100
    107 N44          2.1140     0.2010     0.0630 ns         1 NKD      -0.396100
@<TRIPOS>BOND
     1     1    11 1   
     2     1    15 1   
     3     1    37 1   
     4     1    56 1   
     5     2    12 ar  
     6     2    13 ar  
     7     2    57 1   
     8     3    13 ar  
     9     3    14 ar  
    10     3    58 1   
    11     4    12 ar  
    12     4    14 ar  
    13     4    59 1   
    14     5     9 1   
    15     5    38 1   
    16     5    46 2   
    17     6    16 1   
    18     6    17 1   
    19     6    60 1   
    20     6   103 1   
    21     7    55 1   
    22     7    61 1   
    23     7    62 1   
    24     7    63 1   
    25     8     9 1   
    26     8    66 1   
    27     8    67 1   
    28     8   104 1   
    29     9    36 1   
    30     9    68 1   
    31    10    36 1   
    32    10    37 1   
    33    10    42 2   
    34    11    12 1   
    35    11    69 1   
    36    11    70 1   
    37    13    43 1   
    38    14    71 1   
    39    15    44 1   
    40    15    45 1   
    41    16    26 1   
    42    16    38 1   
    43    16    72 1   
    44    17    73 1   
    45    17    74 1   
    46    17    75 1   
    47    18    19 1   
    48    18    39 1   
    49    18    79 1   
    50    18   106 1   
    51    19    20 1   
    52    19    80 1   
    53    19    81 1   
    54    20    21 ar  
    55    20    25 ar  
    56    21    22 ar  
    57    21    82 1   
    58    22    23 ar  
    59    22    48 1   
    60    23    24 ar  
    61    23    83 1   
    62    24    25 ar  
    63    24    84 1   
    64    25    85 1   
    65    26    49 2   
    66    26   107 1   
    67    27    28 2   
    68    27    86 1   
    69    27   107 1   
    70    28    31 1   
    71    28    50 1   
    72    29    30 1   
    73    29    40 1   
    74    29    50 1   
    75    29    87 1   
    76    30    31 1   
    77    30    51 1   
    78    30    88 1   
    79    31    52 1   
    80    31    89 1   
    81    32    33 2   
    82    32    40 1   
    83    32    90 1   
    84    33    34 1   
    85    33    91 1   
    86    34    41 1   
    87    34    53 2   
    88    35    40 1   
    89    35    41 1   
    90    35    54 2   
    91    36    92 1   
    92    37    93 1   
    93    38    94 1   
    94    39    95 1   
    95    39    96 1   
    96    41    97 1   
    97    43    98 1   
    98    47   106 2   
    99    48    99 1   
   100    51   100 1   
   101    52   101 1   
   102    55   104 1   
   103    64   104 1   
   104    65   104 1   
   105    76   105 1   
   106    77   105 1   
   107    78   105 1   
   108   102   107 1   
   109   103   105 1   
   110   103   106 1   
@<TRIPOS>SUBSTRUCTURE
     1 NKD         1 TEMP              0 ****  ****    0 ROOT
