@<TRIPOS>MOLECULE
NKD
  107   110     1     0     0
SMALL
No Charge or Current Charge


@<TRIPOS>ATOM
      1 C10         -7.0210     0.1620    -1.3510 c3         1 NKD      -0.037300
      2 C13         -5.6150     3.3310    -1.1260 ca         1 NKD      -0.147000
      3 C15         -5.7000     4.5870     0.9560 ca         1 NKD      -0.226000
      4 C17         -7.4400     2.9650     0.4380 ca         1 NKD      -0.140000
      5 C22         -1.1050     0.8010    -0.2050 c          1 NKD       0.590100
      6 C26          1.7480     2.7640     1.3830 c3         1 NKD       0.097700
      7 C01         -3.9710    -4.5080     2.8660 c3         1 NKD       0.060900
      8 C04         -1.8970    -1.3080     1.0220 c3         1 NKD      -0.089400
      9 C05         -2.3170     0.0740     0.4480 c3         1 NKD       0.051700
     10 C07         -4.7520     0.0610    -0.2290 c          1 NKD       0.649100
     11 C11         -7.4050     1.6180    -1.7200 c3         1 NKD      -0.040100
     12 C12         -6.8060     2.6610    -0.7820 ca         1 NKD      -0.010300
     13 C14         -5.0650     4.2870    -0.2580 ca         1 NKD       0.128100
     14 C16         -6.8900     3.9240     1.3060 ca         1 NKD      -0.078000
     15 C19         -7.7030    -0.8630    -2.3060 c          1 NKD       0.713000
     16 C25          1.1340     1.9070     0.2360 c3         1 NKD       0.022700
     17 C27          0.7230     3.7240     2.0370 c3         1 NKD      -0.107100
     18 C32          5.5580     3.8450     0.9130 c3         1 NKD       0.097500
     19 C34          6.0930     3.2290    -0.4070 c3         1 NKD      -0.084100
     20 C35          7.2230     4.0360    -1.0390 ca         1 NKD      -0.042300
     21 C36          8.5400     3.5360    -1.0560 ca         1 NKD      -0.150000
     22 C37          9.5750     4.2830    -1.6410 ca         1 NKD       0.139100
     23 C38          9.3040     5.5340    -2.2150 ca         1 NKD      -0.210000
     24 C39          7.9920     6.0390    -2.2060 ca         1 NKD      -0.068000
     25 C40          6.9560     5.2910    -1.6210 ca         1 NKD      -0.143000
     26 C42          2.1660     0.8950    -0.3500 c          1 NKD       0.609100
     27 C45          2.6130    -1.5650    -0.5090 c2         1 NKD      -0.047400
     28 C46          2.2790    -2.8010    -0.1140 c2         1 NKD      -0.058100
     29 C48          1.1860    -4.5190     0.9200 c5         1 NKD       0.342700
     30 C49          2.5140    -5.1460     0.3620 c5         1 NKD       0.106300
     31 C51          2.9040    -4.0660    -0.6830 c5         1 NKD       0.160500
     32 C54         -0.3720    -4.5110    -1.0770 cc         1 NKD       0.002600
     33 C55         -1.4570    -5.0480    -1.7290 cd         1 NKD      -0.368200
     34 C56         -2.2120    -6.1770    -1.1820 c          1 NKD       0.598200
     35 C59         -0.6620    -6.1590     0.7070 c          1 NKD       0.625000
     36 N06         -3.4220    -0.0530    -0.5300 ns         1 NKD      -0.517900
     37 N09         -5.5510    -0.0340    -1.3380 ns         1 NKD      -0.453900
     38 N24         -0.1150     1.2130     0.6670 ns         1 NKD      -0.526900
     39 N33          6.6780     3.9540     1.9110 n8         1 NKD      -0.990200
     40 N53          0.0210    -5.0580     0.1510 n          1 NKD      -0.336000
     41 N58         -1.7250    -6.6280     0.0010 ns         1 NKD      -0.459500
     42 O08         -5.1710     0.2250     0.9050 o          1 NKD      -0.651100
     43 O18         -3.9140     4.9290    -0.5960 oh         1 NKD      -0.543100
     44 O20         -8.5680    -1.5940    -1.8450 o          1 NKD      -0.726000
     45 O21         -7.2990    -0.9470    -3.4590 o          1 NKD      -0.726000
     46 O23         -1.0030     0.9850    -1.4120 o          1 NKD      -0.591100
     47 O31          4.3770     2.1260     2.1810 o          1 NKD      -0.597100
     48 O41         10.8440     3.7890    -1.6490 oh         1 NKD      -0.535100
     49 O43          3.0540     1.2210    -1.1280 o          1 NKD      -0.597100
     50 O47          1.2950    -3.0750     0.8050 os         1 NKD      -0.332100
     51 O50          3.5300    -5.2340     1.3760 oh         1 NKD      -0.638000
     52 O52          4.3280    -3.9480    -0.8260 oh         1 NKD      -0.644000
     53 O57         -3.1810    -6.6780    -1.7240 o          1 NKD      -0.529000
     54 O60         -0.3270    -6.6980     1.7490 o          1 NKD      -0.569000
     55 S02         -2.3820    -3.6440     2.4650 ss         1 NKD      -0.521000
     56 H101        -7.4040    -0.0450    -0.3430 h1         1 NKD       0.070700
     57 H131        -5.1130     3.1050    -2.0620 ha         1 NKD       0.122000
     58 H151        -5.2800     5.3270     1.6320 ha         1 NKD       0.096000
     59 H171        -8.3580     2.4530     0.7170 ha         1 NKD       0.122000
     60 H261         2.0200     2.0550     2.1770 h1         1 NKD       0.091700
     61 H013        -4.5770    -3.8880     3.5390 h1         1 NKD       0.068700
     62 H011        -4.5380    -4.6980     1.9450 h1         1 NKD       0.068700
     63 H012        -3.7600    -5.4670     3.3570 h1         1 NKD       0.068700
     64 H032        -3.5360    -1.4870     2.4460 h1         1 NKD       0.095200
     65 H031        -3.7900    -2.3730     0.9230 h1         1 NKD       0.095200
     66 H042        -1.1060    -1.1600     1.7670 hc         1 NKD       0.049700
     67 H041        -1.4630    -1.9160     0.2180 hc         1 NKD       0.049700
     68 H051        -2.6520     0.7130     1.2750 h1         1 NKD       0.092700
     69 H112        -7.0920     1.8190    -2.7520 hc         1 NKD       0.060700
     70 H111        -8.4990     1.7040    -1.7170 hc         1 NKD       0.060700
     71 H161        -7.3840     4.1520     2.2480 ha         1 NKD       0.098000
     72 H251         0.8740     2.5810    -0.5890 h1         1 NKD       0.093700
     73 H272         0.2590     4.3840     1.2950 hc         1 NKD       0.048700
     74 H273        -0.0760     3.1670     2.5390 hc         1 NKD       0.048700
     75 H271         1.2140     4.3490     2.7930 hc         1 NKD       0.048700
     76 H293         3.0740     5.5640     0.5100 h1         1 NKD       0.043033
     77 H291         3.4810     4.4870    -0.8610 h1         1 NKD       0.043033
     78 H292         1.7930     4.6860    -0.3610 h1         1 NKD       0.043033
     79 H321         5.2530     4.8750     0.6930 h1         1 NKD       0.070700
     80 H341         6.4170     2.1980    -0.2140 hc         1 NKD       0.074200
     81 H342         5.2710     3.1420    -1.1260 hc         1 NKD       0.074200
     82 H361         8.7640     2.5680    -0.6150 ha         1 NKD       0.128000
     83 H381        10.1000     6.1180    -2.6710 ha         1 NKD       0.110000
     84 H391         7.7780     7.0080    -2.6530 ha         1 NKD       0.112000
     85 H401         5.9440     5.6890    -1.6210 ha         1 NKD       0.118000
     86 H451         3.3900    -1.3670    -1.2510 h4         1 NKD       0.225000
     87 H481         1.0370    -4.7920     1.9720 h2         1 NKD       0.142700
     88 H491         2.3420    -6.1270    -0.1030 h1         1 NKD       0.072700
     89 H511         2.4500    -4.2980    -1.6570 h1         1 NKD       0.057700
     90 H541         0.2090    -3.6590    -1.4150 h4         1 NKD       0.216000
     91 H551        -1.8210    -4.6620    -2.6740 ha         1 NKD       0.224000
     92 H061        -3.1780    -0.1500    -1.5080 hn         1 NKD       0.311500
     93 H091        -5.0920    -0.2050    -2.2230 hn         1 NKD       0.285500
     94 H241        -0.2850     1.0680     1.6580 hn         1 NKD       0.328500
     95 H331         6.9310     3.0110     2.2290 hn         1 NKD       0.409000
     96 H2           7.5200     4.2800     1.4220 hn         1 NKD       0.409000
     97 H581        -2.2090    -7.4110     0.4070 hn         1 NKD       0.338500
     98 H181        -3.6960     5.5620     0.1200 ho         1 NKD       0.452000
     99 H4          11.4240     4.4420    -2.0970 ho         1 NKD       0.463000
    100 H501         4.2700    -4.6890     1.0140 ho         1 NKD       0.464000
    101 H521         4.6040    -4.5890    -1.5190 ho         1 NKD       0.453000
    102 H441         1.1930    -0.5850     0.6340 hn         1 NKD       0.340500
    103 N28          2.9810     3.4900     0.9560 n          1 NKD      -0.407800
    104 C03         -3.0430    -2.1030     1.6810 c3         1 NKD       0.071600
    105 C29          2.8240     4.6220     0.0060 c3         1 NKD       0.091300
    106 C30          4.2670     3.0730     1.4070 c          1 NKD       0.614100
    107 N44          1.9570    -0.4270    -0.0110 ns         1 NKD      -0.396100
@<TRIPOS>BOND
     1     1    11 1   
     2     1    15 1   
     3     1    37 1   
     4     1    56 1   
     5     2    12 ar  
     6     2    13 ar  
     7     2    57 1   
     8     3    13 ar  
     9     3    14 ar  
    10     3    58 1   
    11     4    12 ar  
    12     4    14 ar  
    13     4    59 1   
    14     5     9 1   
    15     5    38 1   
    16     5    46 2   
    17     6    16 1   
    18     6    17 1   
    19     6    60 1   
    20     6   103 1   
    21     7    55 1   
    22     7    61 1   
    23     7    62 1   
    24     7    63 1   
    25     8     9 1   
    26     8    66 1   
    27     8    67 1   
    28     8   104 1   
    29     9    36 1   
    30     9    68 1   
    31    10    36 1   
    32    10    37 1   
    33    10    42 2   
    34    11    12 1   
    35    11    69 1   
    36    11    70 1   
    37    13    43 1   
    38    14    71 1   
    39    15    44 1   
    40    15    45 1   
    41    16    26 1   
    42    16    38 1   
    43    16    72 1   
    44    17    73 1   
    45    17    74 1   
    46    17    75 1   
    47    18    19 1   
    48    18    39 1   
    49    18    79 1   
    50    18   106 1   
    51    19    20 1   
    52    19    80 1   
    53    19    81 1   
    54    20    21 ar  
    55    20    25 ar  
    56    21    22 ar  
    57    21    82 1   
    58    22    23 ar  
    59    22    48 1   
    60    23    24 ar  
    61    23    83 1   
    62    24    25 ar  
    63    24    84 1   
    64    25    85 1   
    65    26    49 2   
    66    26   107 1   
    67    27    28 2   
    68    27    86 1   
    69    27   107 1   
    70    28    31 1   
    71    28    50 1   
    72    29    30 1   
    73    29    40 1   
    74    29    50 1   
    75    29    87 1   
    76    30    31 1   
    77    30    51 1   
    78    30    88 1   
    79    31    52 1   
    80    31    89 1   
    81    32    33 2   
    82    32    40 1   
    83    32    90 1   
    84    33    34 1   
    85    33    91 1   
    86    34    41 1   
    87    34    53 2   
    88    35    40 1   
    89    35    41 1   
    90    35    54 2   
    91    36    92 1   
    92    37    93 1   
    93    38    94 1   
    94    39    95 1   
    95    39    96 1   
    96    41    97 1   
    97    43    98 1   
    98    47   106 2   
    99    48    99 1   
   100    51   100 1   
   101    52   101 1   
   102    55   104 1   
   103    64   104 1   
   104    65   104 1   
   105    76   105 1   
   106    77   105 1   
   107    78   105 1   
   108   102   107 1   
   109   103   105 1   
   110   103   106 1   
@<TRIPOS>SUBSTRUCTURE
     1 NKD         1 TEMP              0 ****  ****    0 ROOT
