@<TRIPOS>MOLECULE
NKE
   14    15     1     0     0
SMALL
abcg2


@<TRIPOS>ATOM
      1 C1          69.6000    19.0330    27.2970 ca         1 NKE      -0.044000
      2 C2          69.9470    19.5700    26.0380 ca         1 NKE      -0.111000
      3 C3          69.3830    19.0850    24.8800 ca         1 NKE       0.070100
      4 C4          68.6890    18.0060    27.4110 ca         1 NKE      -0.018900
      5 C6          68.1190    17.5140    26.2350 ca         1 NKE      -0.055200
      6 BR1         68.2100    17.2700    29.0960 br         1 NKE      -0.077100
      7 N5          67.2170    16.5450    25.9450 na         1 NKE      -0.064400
      8 N9          67.0080    16.4720    24.6190 nc         1 NKE      -0.146400
      9 N8          67.7390    17.3580    24.0240 nd         1 NKE      -0.201400
     10 C7          68.4550    18.0410    24.9740 ca         1 NKE       0.029400
     11 BR2         69.8430    19.8040    23.1830 br         1 NKE      -0.052100
     12 H1          70.0640    19.4420    28.1830 ha         1 NKE       0.137000
     13 H2          70.6660    20.3760    25.9970 ha         1 NKE       0.139000
     14 H3          66.7280    15.9190    26.5690 hn         1 NKE       0.393000
@<TRIPOS>BOND
     1     1     2 ar  
     2     1     4 ar  
     3     1    12 1   
     4     2     3 ar  
     5     2    13 1   
     6     3    10 ar  
     7     3    11 1   
     8     4     5 ar  
     9     4     6 1   
    10     5     7 1   
    11     5    10 ar  
    12     7     8 1   
    13     7    14 1   
    14     8     9 2   
    15     9    10 1   
@<TRIPOS>SUBSTRUCTURE
     1 NKE         1 TEMP              0 ****  ****    0 ROOT
