@<TRIPOS>MOLECULE
NKE
   14    15     1     0     0
SMALL
No Charge or Current Charge


@<TRIPOS>ATOM
      1 C1          69.6130    19.0460    27.3120 ca         1 NKE      -0.044000
      2 C2          69.9630    19.5880    26.0510 ca         1 NKE      -0.111000
      3 C3          69.3780    19.0800    24.8690 ca         1 NKE       0.070100
      4 C4          68.6770    17.9940    27.3940 ca         1 NKE      -0.018900
      5 C6          68.1220    17.5210    26.1970 ca         1 NKE      -0.055200
      6 Br1         68.1860    17.2420    29.0850 br         1 NKE      -0.077100
      7 N5          67.2090    16.5320    25.9670 na         1 NKE      -0.064400
      8 N9          66.9870    16.4510    24.5960 nc         1 NKE      -0.146400
      9 N8          67.7440    17.3680    23.9900 nd         1 NKE      -0.201400
     10 C7          68.4490    18.0320    24.9830 ca         1 NKE       0.029400
     11 Br2         69.8470    19.8090    23.1610 br         1 NKE      -0.052100
     12 H1          70.0670    19.4410    28.2180 ha         1 NKE       0.137000
     13 H2          70.6850    20.3990    25.9910 ha         1 NKE       0.139000
     14 H3          66.7410    15.9300    26.6380 hn         1 NKE       0.393000
@<TRIPOS>BOND
     1     1     2 ar  
     2     1     4 ar  
     3     1    12 1   
     4     2     3 ar  
     5     2    13 1   
     6     3    10 ar  
     7     3    11 1   
     8     4     5 ar  
     9     4     6 1   
    10     5     7 1   
    11     5    10 ar  
    12     7     8 1   
    13     7    14 1   
    14     8     9 2   
    15     9    10 1   
@<TRIPOS>SUBSTRUCTURE
     1 NKE         1 TEMP              0 ****  ****    0 ROOT
