@<TRIPOS>MOLECULE
NKF
   53    56     1     0     0
SMALL
No Charge or Current Charge


@<TRIPOS>ATOM
      1 N1         -11.3800   -23.8260   -16.9480 nu         1 NKF      -0.934100
      2 N12        -13.1630   -22.7160   -17.9630 nb         1 NKF      -0.415000
      3 C13        -11.0310   -19.6880   -16.9810 c3         1 NKF      -0.061800
      4 C15        -10.5240   -22.6500   -16.7480 c3         1 NKF       0.286800
      5 C17        -15.3510   -23.5870   -18.0920 ca         1 NKF       0.304300
      6 N          -12.3150   -17.1730   -14.5320 n1         1 NKF      -0.462000
      7 C          -12.0680   -18.3140   -14.5270 cg         1 NKF       0.329000
      8 O          -13.2780   -30.6260   -13.8460 os         1 NKF      -0.440000
      9 C1         -11.7660   -19.7230   -14.5050 ca         1 NKF      -0.021000
     10 C12        -11.2810   -20.4190   -15.6500 ca         1 NKF      -0.003300
     11 C14        -11.0250   -21.8180   -15.5520 ca         1 NKF      -0.099300
     12 C16        -12.7280   -23.8160   -17.3030 ca         1 NKF       0.564900
     13 C19        -14.9610   -24.7600   -17.4070 ca         1 NKF      -0.159000
     14 C1A        -13.6170   -24.8820   -17.0010 ca         1 NKF      -0.011000
     15 C1B        -13.2440   -26.0560   -16.3130 ca         1 NKF      -0.229000
     16 C1C        -14.2130   -27.0460   -16.0630 ca         1 NKF       0.622900
     17 C1D        -12.5000   -28.6940   -15.1800 c6         1 NKF       0.177800
     18 C1E        -12.3810   -30.2220   -14.9040 c6         1 NKF       0.142100
     19 C1F        -14.6620   -30.3620   -14.1690 c6         1 NKF       0.142100
     20 C1G        -14.8960   -28.8410   -14.4090 c6         1 NKF       0.177800
     21 C1H        -15.8570   -25.8020   -17.1130 ca         1 NKF       0.421900
     22 C1I         -9.0690   -23.1110   -16.5480 c3         1 NKF      -0.104100
     23 C1K        -11.7040   -21.7790   -13.2000 ca         1 NKF      -0.120000
     24 C1L        -11.2350   -22.4760   -14.3190 ca         1 NKF      -0.082000
     25 C1M        -11.9720   -20.4090   -13.2930 ca         1 NKF      -0.068000
     26 N13        -14.4530   -22.6030   -18.3520 nb         1 NKF      -0.303000
     27 N14        -13.9190   -28.2500   -15.3900 nh         1 NKF      -0.767300
     28 N15        -15.4920   -26.9230   -16.4550 nb         1 NKF      -0.729000
     29 H1         -11.0640   -24.6920   -16.5250 hn         1 NKF       0.485000
     30 H2         -11.7350   -20.0290   -17.7490 hc         1 NKF       0.055033
     31 H3         -11.1270   -18.6000   -16.9230 hc         1 NKF       0.055033
     32 H4         -10.0150   -19.8800   -17.3470 hc         1 NKF       0.055033
     33 H5         -10.5420   -22.0540   -17.6690 h1         1 NKF       0.086700
     34 H6         -16.8720   -22.3790   -19.0860 hc         1 NKF       0.052700
     35 H7         -17.0830   -24.1220   -19.2850 hc         1 NKF       0.052700
     36 H8         -17.4780   -23.3470   -17.7370 hc         1 NKF       0.052700
     37 H9         -12.2270   -26.1920   -15.9650 ha         1 NKF       0.119000
     38 H10        -11.8930   -28.4690   -16.0690 h1         1 NKF       0.057700
     39 H11        -12.0580   -28.1470   -14.3340 h1         1 NKF       0.057700
     40 H12        -12.6230   -30.7850   -15.8170 h1         1 NKF       0.056450
     41 H13        -11.3490   -30.4690   -14.6170 h1         1 NKF       0.056450
     42 H14        -15.2980   -30.7100   -13.3430 h1         1 NKF       0.056450
     43 H15        -14.9360   -30.9270   -15.0710 h1         1 NKF       0.056450
     44 H16        -14.8140   -28.3180   -13.4450 h1         1 NKF       0.057700
     45 H17        -15.9340   -28.7210   -14.7510 h1         1 NKF       0.057700
     46 H18        -16.9040   -25.7500   -17.4070 h4         1 NKF       0.027100
     47 H19         -8.4130   -22.2430   -16.4180 hc         1 NKF       0.045367
     48 H20         -8.9710   -23.7500   -15.6620 hc         1 NKF       0.045367
     49 H21         -8.7190   -23.6740   -17.4210 hc         1 NKF       0.045367
     50 H22        -11.8630   -22.3020   -12.2590 ha         1 NKF       0.118000
     51 H23        -11.0380   -23.5410   -14.2270 ha         1 NKF       0.106000
     52 H24        -12.3410   -19.8780   -12.4170 ha         1 NKF       0.125000
     53 C18        -16.7730   -23.3450   -18.5760 c3         1 NKF      -0.143400
@<TRIPOS>BOND
     1     1     4 1   
     2     1    12 1   
     3     1    29 1   
     4     2    12 ar  
     5     2    26 ar  
     6     3    10 1   
     7     3    30 1   
     8     3    31 1   
     9     3    32 1   
    10     4    11 1   
    11     4    22 1   
    12     4    33 1   
    13     5    13 ar  
    14     5    26 ar  
    15     5    53 1   
    16     6     7 3   
    17     7     9 1   
    18     8    18 1   
    19     8    19 1   
    20     9    10 ar  
    21     9    25 ar  
    22    10    11 ar  
    23    11    24 ar  
    24    12    14 ar  
    25    13    14 ar  
    26    13    21 ar  
    27    14    15 ar  
    28    15    16 ar  
    29    15    37 1   
    30    16    27 1   
    31    16    28 ar  
    32    17    18 1   
    33    17    27 1   
    34    17    38 1   
    35    17    39 1   
    36    18    40 1   
    37    18    41 1   
    38    19    20 1   
    39    19    42 1   
    40    19    43 1   
    41    20    27 1   
    42    20    44 1   
    43    20    45 1   
    44    21    28 ar  
    45    21    46 1   
    46    22    47 1   
    47    22    48 1   
    48    22    49 1   
    49    23    24 ar  
    50    23    25 ar  
    51    23    50 1   
    52    24    51 1   
    53    25    52 1   
    54    34    53 1   
    55    35    53 1   
    56    36    53 1   
@<TRIPOS>SUBSTRUCTURE
     1 NKF         1 TEMP              0 ****  ****    0 ROOT
