@<TRIPOS>MOLECULE
NKF
   53    56     1     0     0
SMALL
abcg2


@<TRIPOS>ATOM
      1 N1         -11.6020   -23.8630   -16.3830 nu         1 NKF      -0.934100
      2 N12        -13.3580   -22.7210   -17.2810 nb         1 NKF      -0.415000
      3 C13        -10.6680   -19.8700   -17.3060 c3         1 NKF      -0.061800
      4 C15        -10.7430   -22.7070   -16.4910 c3         1 NKF       0.286800
      5 C17        -15.4740   -23.5860   -17.5640 ca         1 NKF       0.304300
      6 N          -11.3240   -16.7680   -15.5340 n1         1 NKF      -0.462000
      7 C          -11.3500   -17.8940   -15.2900 cg         1 NKF       0.329000
      8 O          -13.2760   -31.0470   -14.4610 os         1 NKF      -0.440000
      9 C1         -11.3910   -19.2820   -14.9540 ca         1 NKF      -0.021000
     10 C12        -11.0640   -20.2540   -15.9110 ca         1 NKF      -0.003300
     11 C14        -11.1280   -21.5970   -15.5260 ca         1 NKF      -0.099300
     12 C16        -12.9050   -23.8250   -16.7500 ca         1 NKF       0.564900
     13 C19        -15.0720   -24.8320   -16.9940 ca         1 NKF      -0.159000
     14 C1A        -13.7440   -24.9910   -16.5790 ca         1 NKF      -0.011000
     15 C1B        -13.3260   -26.2090   -16.0520 ca         1 NKF      -0.229000
     16 C1C        -14.2490   -27.2560   -15.9580 ca         1 NKF       0.622900
     17 C1D        -12.5920   -28.7750   -14.9900 c6         1 NKF       0.177800
     18 C1E        -12.2840   -30.2600   -15.0720 c6         1 NKF       0.142100
     19 C1F        -14.5160   -30.8310   -15.0910 c6         1 NKF       0.142100
     20 C1G        -14.9500   -29.3840   -14.9890 c6         1 NKF       0.177800
     21 C1H        -15.9220   -25.9350   -16.8190 ca         1 NKF       0.421900
     22 C1I         -9.2970   -23.1320   -16.2610 c3         1 NKF      -0.104100
     23 C1K        -11.8190   -20.9510   -13.2930 ca         1 NKF      -0.120000
     24 C1L        -11.4990   -21.9250   -14.2280 ca         1 NKF      -0.082000
     25 C1M        -11.7680   -19.6200   -13.6540 ca         1 NKF      -0.068000
     26 N13        -14.6330   -22.6070   -17.6980 nb         1 NKF      -0.303000
     27 N14        -13.9170   -28.5030   -15.5160 nh         1 NKF      -0.767300
     28 N15        -15.5350   -27.0800   -16.3260 nb         1 NKF      -0.729000
     29 H1         -11.2900   -24.6130   -15.7880 hn         1 NKF       0.485000
     30 H2         -11.3730   -20.2800   -18.0320 hc         1 NKF       0.055033
     31 H3         -10.6390   -18.7930   -17.4510 hc         1 NKF       0.055033
     32 H4          -9.6810   -20.2590   -17.5590 hc         1 NKF       0.055033
     33 H5         -10.8330   -22.3350   -17.5120 h1         1 NKF       0.086700
     34 H6         -16.9790   -22.3620   -18.4440 hc         1 NKF       0.052700
     35 H7         -17.1530   -24.0810   -18.8140 hc         1 NKF       0.052700
     36 H8         -17.5950   -23.4810   -17.2240 hc         1 NKF       0.052700
     37 H9         -12.3100   -26.3430   -15.7160 ha         1 NKF       0.119000
     38 H10        -11.8350   -28.2600   -15.5790 h1         1 NKF       0.057700
     39 H11        -12.5030   -28.4220   -13.9530 h1         1 NKF       0.057700
     40 H12        -12.1650   -30.5440   -16.1280 h1         1 NKF       0.056450
     41 H13        -11.3390   -30.4580   -14.5640 h1         1 NKF       0.056450
     42 H14        -15.2540   -31.4650   -14.5970 h1         1 NKF       0.056450
     43 H15        -14.4690   -31.1290   -16.1480 h1         1 NKF       0.056450
     44 H16        -15.1590   -29.1320   -13.9400 h1         1 NKF       0.057700
     45 H17        -15.8710   -29.2480   -15.5490 h1         1 NKF       0.057700
     46 H18        -16.9680   -25.8660   -17.0990 h4         1 NKF       0.027100
     47 H19         -8.6300   -22.2780   -16.3680 hc         1 NKF       0.045367
     48 H20         -9.1590   -23.5380   -15.2560 hc         1 NKF       0.045367
     49 H21         -8.9980   -23.8900   -16.9850 hc         1 NKF       0.045367
     50 H22        -12.1070   -21.2320   -12.2880 ha         1 NKF       0.118000
     51 H23        -11.5460   -22.9680   -13.9350 ha         1 NKF       0.106000
     52 H24        -12.0160   -18.8430   -12.9430 ha         1 NKF       0.125000
     53 C18        -16.8760   -23.3660   -18.0370 c3         1 NKF      -0.143400
@<TRIPOS>BOND
     1     1     4 1   
     2     1    12 1   
     3     1    29 1   
     4     2    12 ar  
     5     2    26 ar  
     6     3    10 1   
     7     3    30 1   
     8     3    31 1   
     9     3    32 1   
    10     4    11 1   
    11     4    22 1   
    12     4    33 1   
    13     5    13 ar  
    14     5    26 ar  
    15     5    53 1   
    16     6     7 3   
    17     7     9 1   
    18     8    18 1   
    19     8    19 1   
    20     9    10 ar  
    21     9    25 ar  
    22    10    11 ar  
    23    11    24 ar  
    24    12    14 ar  
    25    13    14 ar  
    26    13    21 ar  
    27    14    15 ar  
    28    15    16 ar  
    29    15    37 1   
    30    16    27 1   
    31    16    28 ar  
    32    17    18 1   
    33    17    27 1   
    34    17    38 1   
    35    17    39 1   
    36    18    40 1   
    37    18    41 1   
    38    19    20 1   
    39    19    42 1   
    40    19    43 1   
    41    20    27 1   
    42    20    44 1   
    43    20    45 1   
    44    21    28 ar  
    45    21    46 1   
    46    22    47 1   
    47    22    48 1   
    48    22    49 1   
    49    23    24 ar  
    50    23    25 ar  
    51    23    50 1   
    52    24    51 1   
    53    25    52 1   
    54    34    53 1   
    55    35    53 1   
    56    36    53 1   
@<TRIPOS>SUBSTRUCTURE
     1 NKF         1 TEMP              0 ****  ****    0 ROOT
