@<TRIPOS>MOLECULE
NKG
   37    39     1     0     0
SMALL
No Charge or Current Charge


@<TRIPOS>ATOM
      1 O3          -3.7590    -1.6710     0.1770 o          1 NKG      -0.703100
      2 C15         -2.7100    -1.0580    -0.0260 c          1 NKG       0.484600
      3 N1          -2.7030     0.2810    -0.3550 ns         1 NKG      -0.396900
      4 C16         -3.9040     1.1300    -0.5160 c3         1 NKG      -0.070000
      5 C17         -3.5360     2.6270    -0.6880 c          1 NKG       0.713000
      6 O2          -4.2750     3.4610    -0.1860 o          1 NKG      -0.720500
      7 O1          -2.5000     2.9080    -1.2750 o          1 NKG      -0.720500
      8 C14         -1.3370    -1.7200     0.0690 ca         1 NKG       0.194500
      9 C           -1.2560    -3.1020     0.3960 ca         1 NKG       0.166100
     10 O           -2.3800    -3.8510     0.6280 oh         1 NKG      -0.562100
     11 N           -0.2210    -0.9650    -0.1630 nb         1 NKG      -0.612000
     12 C3           1.0000    -1.5430    -0.0710 cp         1 NKG       0.342500
     13 C2           1.1440    -2.9190     0.2320 ca         1 NKG      -0.106000
     14 C1           0.0060    -3.7090     0.4760 ca         1 NKG      -0.156000
     15 C4           2.1930    -0.6920    -0.3790 cp         1 NKG      -0.099500
     16 C13          3.0710    -1.1120    -1.4090 ca         1 NKG      -0.114000
     17 C12          4.1950    -0.3550    -1.7680 ca         1 NKG      -0.118000
     18 C11          4.4730     0.8430    -1.0980 ca         1 NKG      -0.100000
     19 C10          3.6350     1.2820    -0.0580 ca         1 NKG      -0.039000
     20 C5           2.4960     0.5210     0.3160 ca         1 NKG      -0.005000
     21 C9           3.9450     2.4810     0.6140 ca         1 NKG      -0.117000
     22 C8           3.1380     2.9310     1.6690 ca         1 NKG      -0.097000
     23 C7           2.0210     2.1790     2.0610 ca         1 NKG      -0.100000
     24 C6           1.7040     0.9840     1.3940 ca         1 NKG      -0.065000
     25 H1          -1.7870     0.6920    -0.5170 hn         1 NKG       0.370500
     26 H2          -4.4610     0.8050    -1.4040 h1         1 NKG       0.041700
     27 H3          -4.5450     1.0200     0.3680 h1         1 NKG       0.041700
     28 H5          -3.1510    -3.2240     0.5170 ho         1 NKG       0.534000
     29 H6           2.1360    -3.3600     0.2820 ha         1 NKG       0.115000
     30 H7           0.1010    -4.7650     0.7170 ha         1 NKG       0.123000
     31 H8           2.8640    -2.0340    -1.9490 ha         1 NKG       0.107000
     32 H9           4.8480    -0.6950    -2.5680 ha         1 NKG       0.103000
     33 H10          5.3460     1.4260    -1.3820 ha         1 NKG       0.103000
     34 H11          4.8160     3.0630     0.3210 ha         1 NKG       0.101000
     35 H12          3.3820     3.8560     2.1860 ha         1 NKG       0.106000
     36 H13          1.4000     2.5210     2.8860 ha         1 NKG       0.120000
     37 H14          0.8410     0.4210     1.7370 ha         1 NKG       0.134000
@<TRIPOS>BOND
     1     1     2 2   
     2     2     3 1   
     3     2     8 1   
     4     3     4 1   
     5     3    25 1   
     6     4     5 1   
     7     4    26 1   
     8     4    27 1   
     9     5     6 1   
    10     5     7 1   
    11     8     9 ar  
    12     8    11 ar  
    13     9    10 1   
    14     9    14 ar  
    15    10    28 1   
    16    11    12 ar  
    17    12    13 ar  
    18    12    15 1   
    19    13    14 ar  
    20    13    29 1   
    21    14    30 1   
    22    15    16 ar  
    23    15    20 ar  
    24    16    17 ar  
    25    16    31 1   
    26    17    18 ar  
    27    17    32 1   
    28    18    19 ar  
    29    18    33 1   
    30    19    20 ar  
    31    19    21 ar  
    32    20    24 ar  
    33    21    22 ar  
    34    21    34 1   
    35    22    23 ar  
    36    22    35 1   
    37    23    24 ar  
    38    23    36 1   
    39    24    37 1   
@<TRIPOS>SUBSTRUCTURE
     1 NKG         1 TEMP              0 ****  ****    0 ROOT
