@<TRIPOS>MOLECULE
NKG
   37    39     1     0     0
SMALL
abcg2


@<TRIPOS>ATOM
      1 O3          -3.6640    -1.6550     0.1410 o          1 NKG      -0.703100
      2 C15         -2.6070    -1.0200    -0.0160 c          1 NKG       0.484600
      3 N1          -2.5530     0.2840    -0.2060 ns         1 NKG      -0.396900
      4 C16         -3.6910     1.1630    -0.2430 c3         1 NKG      -0.070000
      5 C17         -3.2310     2.6270    -0.4190 c          1 NKG       0.713000
      6 O2          -4.1440     3.4690    -0.4400 o          1 NKG      -0.720500
      7 O1          -2.0060     2.8230    -0.5220 o          1 NKG      -0.720500
      8 C14         -1.2990    -1.7340     0.0170 ca         1 NKG       0.194500
      9 C           -1.2690    -3.1140     0.2570 ca         1 NKG       0.166100
     10 O           -2.3670    -3.8390     0.4440 oh         1 NKG      -0.562100
     11 N           -0.2000    -1.0140    -0.1730 nb         1 NKG      -0.612000
     12 C3           0.9910    -1.5830    -0.1310 cp         1 NKG       0.342500
     13 C2           1.1150    -2.9580     0.1170 ca         1 NKG      -0.106000
     14 C1          -0.0130    -3.7240     0.3060 ca         1 NKG      -0.156000
     15 C4           2.1840    -0.7460    -0.3860 cp         1 NKG      -0.099500
     16 C13          3.1320    -1.2130    -1.2650 ca         1 NKG      -0.114000
     17 C12          4.2810    -0.4640    -1.5800 ca         1 NKG      -0.118000
     18 C11          4.4760     0.7600    -1.0070 ca         1 NKG      -0.100000
     19 C10          3.5370     1.2770    -0.0840 ca         1 NKG      -0.039000
     20 C5           2.3760     0.5230     0.2440 ca         1 NKG      -0.005000
     21 C9           3.7500     2.5360     0.5270 ca         1 NKG      -0.117000
     22 C8           2.8610     3.0310     1.4400 ca         1 NKG      -0.097000
     23 C7           1.7220     2.2790     1.7850 ca         1 NKG      -0.100000
     24 C6           1.4840     1.0620     1.2050 ca         1 NKG      -0.065000
     25 H1          -1.6500     0.7300    -0.3240 hn         1 NKG       0.370500
     26 H2          -4.3640     0.8990    -1.0650 h1         1 NKG       0.041700
     27 H3          -4.2780     1.0780     0.6770 h1         1 NKG       0.041700
     28 H5          -3.1300    -3.2100     0.3760 ho         1 NKG       0.534000
     29 H6           2.0930    -3.4170     0.1760 ha         1 NKG       0.115000
     30 H7           0.0640    -4.7860     0.5010 ha         1 NKG       0.123000
     31 H8           2.9830    -2.1690    -1.7510 ha         1 NKG       0.107000
     32 H9           4.9980    -0.8620    -2.2850 ha         1 NKG       0.103000
     33 H10          5.3520     1.3490    -1.2510 ha         1 NKG       0.103000
     34 H11          4.6350     3.1000     0.2590 ha         1 NKG       0.101000
     35 H12          3.0330     3.9950     1.9020 ha         1 NKG       0.106000
     36 H13          1.0260     2.6680     2.5170 ha         1 NKG       0.120000
     37 H14          0.6000     0.5120     1.4890 ha         1 NKG       0.134000
@<TRIPOS>BOND
     1     1     2 2   
     2     2     3 1   
     3     2     8 1   
     4     3     4 1   
     5     3    25 1   
     6     4     5 1   
     7     4    26 1   
     8     4    27 1   
     9     5     6 1   
    10     5     7 1   
    11     8     9 ar  
    12     8    11 ar  
    13     9    10 1   
    14     9    14 ar  
    15    10    28 1   
    16    11    12 ar  
    17    12    13 ar  
    18    12    15 1   
    19    13    14 ar  
    20    13    29 1   
    21    14    30 1   
    22    15    16 ar  
    23    15    20 ar  
    24    16    17 ar  
    25    16    31 1   
    26    17    18 ar  
    27    17    32 1   
    28    18    19 ar  
    29    18    33 1   
    30    19    20 ar  
    31    19    21 ar  
    32    20    24 ar  
    33    21    22 ar  
    34    21    34 1   
    35    22    23 ar  
    36    22    35 1   
    37    23    24 ar  
    38    23    36 1   
    39    24    37 1   
@<TRIPOS>SUBSTRUCTURE
     1 NKG         1 TEMP              0 ****  ****    0 ROOT
