@<TRIPOS>MOLECULE
NKH
   39    41     1     0     0
SMALL
abcg2


@<TRIPOS>ATOM
      1 CAR        -31.6020    21.1540   -35.1400 c3         1 NKH       0.154900
      2 OAQ        -30.3870    20.4430   -34.9090 os         1 NKH      -0.358100
      3 CAP        -30.3050    19.1470   -35.3170 ca         1 NKH       0.056100
      4 CAU        -31.3430    18.4480   -35.9140 ca         1 NKH      -0.129000
      5 CAT        -31.1620    17.1240   -36.2950 ca         1 NKH       0.086000
      6 CL         -32.4910    16.2720   -37.0450 cl         1 NKH      -0.198000
      7 CAS        -29.9470    16.4730   -36.0900 ca         1 NKH       0.146100
      8 OAV        -29.8450    15.1800   -36.4910 os         1 NKH      -0.335100
      9 CAX        -28.6040    14.5050   -36.2870 c3         1 NKH       0.147900
     10 CAN        -28.9050    17.1800   -35.4880 ca         1 NKH      -0.198000
     11 CAO        -29.0660    18.5090   -35.0990 ca         1 NKH       0.008000
     12 NAM        -28.0640    19.2840   -34.5100 ns         1 NKH      -0.135000
     13 CAK        -26.8250    18.9030   -34.1120 c          1 NKH       0.619700
     14 OAL        -26.4000    17.7510   -34.2120 o          1 NKH      -0.618100
     15 CAG        -25.9540    19.9850   -33.5220 ca         1 NKH      -0.132600
     16 CAH        -26.3190    21.3610   -33.3520 ca         1 NKH       0.301000
     17 NAI        -27.5490    21.8000   -33.7300 nb         1 NKH      -0.697000
     18 CAJ        -27.8690    23.0650   -33.5720 ca         1 NKH       0.381900
     19 CAE        -26.9970    24.0230   -33.0210 ca         1 NKH      -0.172000
     20 CAD        -25.7510    23.6160   -32.6290 ca         1 NKH      -0.046000
     21 CAC        -25.3710    22.2640   -32.7830 ca         1 NKH      -0.095000
     22 CAB        -24.0960    21.7990   -32.3900 ca         1 NKH      -0.067000
     23 CAA        -23.7650    20.4810   -32.5580 ca         1 NKH      -0.118000
     24 CAF        -24.6940    19.5890   -33.1210 ca         1 NKH      -0.037000
     25 HAR1       -31.4330    22.1590   -34.7610 h1         1 NKH       0.040700
     26 HAR2       -31.8330    21.1960   -36.2070 h1         1 NKH       0.040700
     27 HAR3       -32.4330    20.6920   -34.6030 h1         1 NKH       0.040700
     28 HAU        -32.2990    18.9160   -36.0890 ha         1 NKH       0.131000
     29 HAN        -27.9540    16.7110   -35.3140 ha         1 NKH       0.160000
     30 HAX1       -28.7480    13.5000   -36.6760 h1         1 NKH       0.046033
     31 HAX2       -27.7940    14.9980   -36.8310 h1         1 NKH       0.046033
     32 HAX3       -28.3540    14.4560   -35.2240 h1         1 NKH       0.046033
     33 HAM        -28.2760    20.2770   -34.3480 hn         1 NKH       0.218000
     34 HAF        -24.4240    18.5510   -33.2530 ha         1 NKH       0.146000
     35 HAJ        -28.8640    23.3550   -33.8920 h4         1 NKH       0.024100
     36 HAE        -27.3190    25.0500   -32.9180 ha         1 NKH       0.130000
     37 HAD        -25.0420    24.3140   -32.2000 ha         1 NKH       0.123000
     38 HAB        -23.3930    22.5030   -31.9600 ha         1 NKH       0.120000
     39 HAA        -22.7910    20.1160   -32.2600 ha         1 NKH       0.125000
@<TRIPOS>BOND
     1     1     2 1   
     2     1    25 1   
     3     1    26 1   
     4     1    27 1   
     5     2     3 1   
     6     3     4 ar  
     7     3    11 ar  
     8     4     5 ar  
     9     4    28 1   
    10     5     6 1   
    11     5     7 ar  
    12     7     8 1   
    13     7    10 ar  
    14     8     9 1   
    15     9    30 1   
    16     9    31 1   
    17     9    32 1   
    18    10    11 ar  
    19    10    29 1   
    20    11    12 1   
    21    12    13 1   
    22    12    33 1   
    23    13    14 2   
    24    13    15 1   
    25    15    16 ar  
    26    15    24 ar  
    27    16    17 ar  
    28    16    21 ar  
    29    17    18 ar  
    30    18    19 ar  
    31    18    35 1   
    32    19    20 ar  
    33    19    36 1   
    34    20    21 ar  
    35    20    37 1   
    36    21    22 ar  
    37    22    23 ar  
    38    22    38 1   
    39    23    24 ar  
    40    23    39 1   
    41    24    34 1   
@<TRIPOS>SUBSTRUCTURE
     1 NKH         1 TEMP              0 ****  ****    0 ROOT
