@<TRIPOS>MOLECULE
NKH
   39    41     1     0     0
SMALL
No Charge or Current Charge


@<TRIPOS>ATOM
      1 CAR        -31.7540    21.1000   -34.8030 c3         1 NKH       0.154900
      2 OAQ        -30.5130    20.3760   -34.7130 os         1 NKH      -0.358100
      3 CAP        -30.3610    19.0910   -35.2040 ca         1 NKH       0.056100
      4 CAU        -31.4270    18.3980   -35.8180 ca         1 NKH      -0.129000
      5 CAT        -31.2350    17.0970   -36.3040 ca         1 NKH       0.086000
      6 Cl         -32.5930    16.2650   -37.0660 cl         1 NKH      -0.198000
      7 CAS        -29.9770    16.4700   -36.1900 ca         1 NKH       0.146100
      8 OAV        -29.8290    15.1880   -36.6920 os         1 NKH      -0.335100
      9 CAX        -28.5870    14.4630   -36.6170 c3         1 NKH       0.147900
     10 CAN        -28.9100    17.1630   -35.5760 ca         1 NKH      -0.198000
     11 CAO        -29.0980    18.4710   -35.0720 ca         1 NKH       0.008000
     12 NAM        -28.0600    19.2220   -34.4500 ns         1 NKH      -0.135000
     13 CAK        -26.8040    18.8850   -33.9660 c          1 NKH       0.619700
     14 OAL        -26.3990    17.7260   -33.9850 o          1 NKH      -0.618100
     15 CAG        -25.9250    19.9910   -33.3830 ca         1 NKH      -0.132600
     16 CAH        -26.2490    21.3830   -33.4080 ca         1 NKH       0.301000
     17 NAI        -27.3910    21.8400   -33.9800 nb         1 NKH      -0.697000
     18 CAJ        -27.6660    23.1640   -33.9870 ca         1 NKH       0.381900
     19 CAE        -26.8140    24.1170   -33.4220 ca         1 NKH      -0.172000
     20 CAD        -25.6240    23.6850   -32.8260 ca         1 NKH      -0.046000
     21 CAC        -25.3360    22.3080   -32.8200 ca         1 NKH      -0.095000
     22 CAB        -24.1390    21.8740   -32.2270 ca         1 NKH      -0.067000
     23 CAA        -23.8250    20.5140   -32.2110 ca         1 NKH      -0.118000
     24 CAF        -24.7050    19.5860   -32.7820 ca         1 NKH      -0.037000
     25 HAR1       -31.6450    22.0960   -34.3550 h1         1 NKH       0.040700
     26 HAR2       -32.0550    21.2300   -35.8500 h1         1 NKH       0.040700
     27 HAR3       -32.5530    20.5720   -34.2670 h1         1 NKH       0.040700
     28 HAU        -32.4080    18.8500   -35.9270 ha         1 NKH       0.131000
     29 HAN        -27.9380    16.6920   -35.5030 ha         1 NKH       0.160000
     30 HAX1       -28.7000    13.4700   -37.0700 h1         1 NKH       0.046033
     31 HAX2       -27.7920    14.9930   -37.1570 h1         1 NKH       0.046033
     32 HAX3       -28.2770    14.3260   -35.5740 h1         1 NKH       0.046033
     33 HAM        -28.2850    20.2040   -34.3410 hn         1 NKH       0.218000
     34 HAF        -24.4280    18.5340   -32.7480 ha         1 NKH       0.146000
     35 HAJ        -28.6010    23.4640   -34.4600 h4         1 NKH       0.024100
     36 HAE        -27.0760    25.1710   -33.4500 ha         1 NKH       0.130000
     37 HAD        -24.9400    24.4050   -32.3810 ha         1 NKH       0.123000
     38 HAB        -23.4510    22.5900   -31.7820 ha         1 NKH       0.120000
     39 HAA        -22.8980    20.1750   -31.7550 ha         1 NKH       0.125000
@<TRIPOS>BOND
     1     1     2 1   
     2     1    25 1   
     3     1    26 1   
     4     1    27 1   
     5     2     3 1   
     6     3     4 ar  
     7     3    11 ar  
     8     4     5 ar  
     9     4    28 1   
    10     5     6 1   
    11     5     7 ar  
    12     7     8 1   
    13     7    10 ar  
    14     8     9 1   
    15     9    30 1   
    16     9    31 1   
    17     9    32 1   
    18    10    11 ar  
    19    10    29 1   
    20    11    12 1   
    21    12    13 1   
    22    12    33 1   
    23    13    14 2   
    24    13    15 1   
    25    15    16 ar  
    26    15    24 ar  
    27    16    17 ar  
    28    16    21 ar  
    29    17    18 ar  
    30    18    19 ar  
    31    18    35 1   
    32    19    20 ar  
    33    19    36 1   
    34    20    21 ar  
    35    20    37 1   
    36    21    22 ar  
    37    22    23 ar  
    38    22    38 1   
    39    23    24 ar  
    40    23    39 1   
    41    24    34 1   
@<TRIPOS>SUBSTRUCTURE
     1 NKH         1 TEMP              0 ****  ****    0 ROOT
