@<TRIPOS>MOLECULE
NKI
   29    31     1     0     0
SMALL
No Charge or Current Charge


@<TRIPOS>ATOM
      1 Cl          -5.1630    -0.3450    -0.4300 cl         1 NKI      -0.197000
      2 CAC          3.4120    -2.3900    -0.7670 ca         1 NKI      -0.046000
      3 CAD          3.8110    -1.4050    -1.6860 ca         1 NKI      -0.164000
      4 CAE         -2.4400    -0.1860    -0.7260 ca         1 NKI      -0.103000
      5 CAF         -3.3240     0.4300     1.4540 ca         1 NKI      -0.103000
      6 CAG          2.5760    -2.0430     0.3080 ca         1 NKI      -0.186000
      7 CAH          3.3730    -0.0780    -1.5320 ca         1 NKI      -0.016000
      8 CAI         -1.1360     0.0800    -0.2730 ca         1 NKI      -0.083500
      9 CAJ         -2.0210     0.6980     1.9100 ca         1 NKI      -0.083500
     10 NAK          1.1300     1.8450     0.7560 ns         1 NKI      -0.507900
     11 NAL          1.3300    -0.3670     1.5240 nu         1 NKI      -0.934200
     12 CAM          2.0370     1.6510    -0.2480 c          1 NKI       0.589600
     13 CAN         -3.5320    -0.0110     0.1380 ca         1 NKI       0.129000
     14 CAO         -0.9150     0.5250     1.0500 ca         1 NKI      -0.162300
     15 CAP          2.1400    -0.7190     0.4590 ca         1 NKI       0.327000
     16 CAQ          2.5300     0.2610    -0.4530 ca         1 NKI      -0.217600
     17 CAR          0.4960     0.8230     1.5660 c6         1 NKI       0.448200
     18 HAC          3.7510    -3.4180    -0.8860 ha         1 NKI       0.113000
     19 HAD          4.4590    -1.6690    -2.5190 ha         1 NKI       0.120000
     20 HAE         -2.6030    -0.5290    -1.7440 ha         1 NKI       0.133500
     21 HAF         -4.1730     0.5650     2.1200 ha         1 NKI       0.133500
     22 HAG          2.2720    -2.8030     1.0220 ha         1 NKI       0.115000
     23 HAH          3.6860     0.6800    -2.2480 ha         1 NKI       0.134000
     24 HAI         -0.2980    -0.0620    -0.9530 ha         1 NKI       0.121500
     25 HAJ         -1.8730     1.0390     2.9320 ha         1 NKI       0.121500
     26 HNAK         0.8120     2.7950     0.8820 hn         1 NKI       0.326500
     27 HNAL         1.0500    -1.1360     2.1320 hn         1 NKI       0.476000
     28 HAR          0.4180     1.2010     2.5990 h2         1 NKI       0.074700
     29 OAA          2.4190     2.5940    -0.9250 o          1 NKI      -0.557000
@<TRIPOS>BOND
     1     1    13 1   
     2     2     3 ar  
     3     2     6 ar  
     4     2    18 1   
     5     3     7 ar  
     6     3    19 1   
     7     4     8 ar  
     8     4    13 ar  
     9     4    20 1   
    10     5     9 ar  
    11     5    13 ar  
    12     5    21 1   
    13     6    15 ar  
    14     6    22 1   
    15     7    16 ar  
    16     7    23 1   
    17     8    14 ar  
    18     8    24 1   
    19     9    14 ar  
    20     9    25 1   
    21    10    12 1   
    22    10    17 1   
    23    10    26 1   
    24    11    15 1   
    25    11    17 1   
    26    11    27 1   
    27    12    16 1   
    28    12    29 2   
    29    14    17 1   
    30    15    16 ar  
    31    17    28 1   
@<TRIPOS>SUBSTRUCTURE
     1 NKI         1 TEMP              0 ****  ****    0 ROOT
