@<TRIPOS>MOLECULE
NKI
   29    31     1     0     0
SMALL
bcc


@<TRIPOS>ATOM
      1 CL          -4.7820    -0.7640    -0.5960 cl         1 NKI      -0.105400
      2 CAC          3.0670    -2.4590    -0.5090 ca         1 NKI      -0.064000
      3 CAD          3.3960    -1.6320    -1.5820 ca         1 NKI      -0.182000
      4 CAE         -2.3280     0.3210    -0.8930 ca         1 NKI      -0.121000
      5 CAF         -2.9640    -0.3080     1.3480 ca         1 NKI      -0.121000
      6 CAG          2.3970    -1.9640     0.5950 ca         1 NKI      -0.204000
      7 CAH          3.0550    -0.2930    -1.5280 ca         1 NKI      -0.034000
      8 CAI         -1.1020     0.7650    -0.4140 ca         1 NKI      -0.101500
      9 CAJ         -1.7370     0.1380     1.8060 ca         1 NKI      -0.101500
     10 NAK          1.2810     2.0190     0.6950 ns         1 NKI      -0.574900
     11 NAL          1.4170    -0.0680     1.7400 nu         1 NKI      -0.740600
     12 CAM          2.0760     1.6680    -0.3420 c          1 NKI       0.732100
     13 CAN         -3.2470    -0.2150    -0.0070 ca         1 NKI       0.037400
     14 CAO         -0.7890     0.6700     0.9360 ca         1 NKI      -0.162300
     15 CAP          2.0410    -0.6130     0.6460 ca         1 NKI       0.188600
     16 CAQ          2.3790     0.2250    -0.4260 ca         1 NKI      -0.217600
     17 CAR          0.5610     1.0760     1.5120 c6         1 NKI       0.448200
     18 HAC          3.3310    -3.5090    -0.5370 ha         1 NKI       0.131000
     19 HAD          3.9130    -2.0320    -2.4420 ha         1 NKI       0.138000
     20 HAE         -2.5600     0.3980    -1.9460 ha         1 NKI       0.151500
     21 HAF         -3.6920    -0.7140     2.0380 ha         1 NKI       0.151500
     22 HAG          2.1420    -2.6190     1.4190 ha         1 NKI       0.133000
     23 HAH          3.3130     0.3680    -2.3450 ha         1 NKI       0.152000
     24 HAI         -0.4060     1.1980    -1.1200 ha         1 NKI       0.139500
     25 HAJ         -1.5200     0.0720     2.8670 ha         1 NKI       0.139500
     26 HNAK         1.0060     2.9860     0.7720 hn         1 NKI       0.326500
     27 HNAL         1.0610    -0.7250     2.4180 hn         1 NKI       0.420800
     28 HAR          0.3850     1.5480     2.4800 h2         1 NKI       0.074700
     29 OAA          2.5290     2.4910    -1.1260 o          1 NKI      -0.632500
@<TRIPOS>BOND
     1     1    13 1   
     2     2     3 ar  
     3     2     6 ar  
     4     2    18 1   
     5     3     7 ar  
     6     3    19 1   
     7     4     8 ar  
     8     4    13 ar  
     9     4    20 1   
    10     5     9 ar  
    11     5    13 ar  
    12     5    21 1   
    13     6    15 ar  
    14     6    22 1   
    15     7    16 ar  
    16     7    23 1   
    17     8    14 ar  
    18     8    24 1   
    19     9    14 ar  
    20     9    25 1   
    21    10    12 1   
    22    10    17 1   
    23    10    26 1   
    24    11    15 1   
    25    11    17 1   
    26    11    27 1   
    27    12    16 1   
    28    12    29 2   
    29    14    17 1   
    30    15    16 ar  
    31    17    28 1   
@<TRIPOS>SUBSTRUCTURE
     1 NKI         1 TEMP              0 ****  ****    0 ROOT
