@<TRIPOS>MOLECULE
NKJ
   45    48     1     0     0
SMALL
abcg2


@<TRIPOS>ATOM
      1 C10         -2.1440    -3.6440    -0.1950 ca         1 NKJ      -0.066000
      2 N12          1.1080    -1.9430     0.0230 ns         1 NKJ      -0.351900
      3 C13          1.7210    -1.0030    -0.7420 c          1 NKJ       0.628700
      4 C15          3.1060    -0.6630    -0.2930 ca         1 NKJ      -0.196600
      5 C17          4.7620     0.9690     0.3400 ca         1 NKJ      -0.134000
      6 C20          4.0690    -1.6610    -0.1740 ca         1 NKJ      -0.074000
      7 C22          1.4480     1.6960     0.7260 c3         1 NKJ       0.161600
      8 C24         -0.9120     2.5740     0.7130 c3         1 NKJ      -0.084400
      9 C26         -1.9790     2.6610    -1.5990 c3         1 NKJ      -0.107100
     10 C02         -3.2080    -0.1100     0.3400 cc         1 NKJ       0.323500
     11 C05         -3.9660     1.8830     0.5190 cc         1 NKJ       0.366400
     12 C06         -2.3730    -1.2950     0.1210 ca         1 NKJ       0.346000
     13 C08         -0.2780    -2.1850    -0.0330 ca         1 NKJ       0.471900
     14 C09         -0.7670    -3.4710    -0.2030 ca         1 NKJ      -0.157000
     15 C11         -2.9690    -2.5440    -0.0400 ca         1 NKJ      -0.123000
     16 C16          3.4570     0.6670    -0.0310 ca         1 NKJ       0.168100
     17 C18          5.7180    -0.0330     0.4320 ca         1 NKJ      -0.075000
     18 C19          5.3730    -1.3530     0.1800 ca         1 NKJ      -0.129000
     19 C23          0.5460     2.8620     0.3470 c3         1 NKJ      -0.076400
     20 C25         -1.6390     1.7980    -0.3910 c3         1 NKJ       0.081300
     21 N01         -2.8660     1.1930     0.1460 na         1 NKJ      -0.338000
     22 N03         -4.4340    -0.1800     0.7940 nd         1 NKJ      -0.361000
     23 N04         -4.9110     1.0750     0.9080 nd         1 NKJ      -0.361000
     24 N07         -1.0580    -1.1330     0.1380 nb         1 NKJ      -0.702000
     25 O14          1.1940    -0.4740    -1.7000 o          1 NKJ      -0.548100
     26 O21          2.5750     1.6890    -0.1480 os         1 NKJ      -0.362100
     27 H1          -2.5690    -4.6300    -0.3240 ha         1 NKJ       0.128000
     28 H2           1.6250    -2.3700     0.7780 hn         1 NKJ       0.166000
     29 H3           5.0240     1.9980     0.5500 ha         1 NKJ       0.131000
     30 H4           3.8010    -2.6890    -0.3840 ha         1 NKJ       0.116000
     31 H5           1.7860     1.7880     1.7630 h1         1 NKJ       0.039700
     32 H6           0.8800     0.7640     0.6570 h1         1 NKJ       0.039700
     33 H7          -0.9470     1.9990     1.6430 hc         1 NKJ       0.053200
     34 H8          -1.4450     3.5070     0.9090 hc         1 NKJ       0.053200
     35 H9          -2.5920     3.5220    -1.3290 hc         1 NKJ       0.049367
     36 H10         -1.0670     3.0430    -2.0540 hc         1 NKJ       0.049367
     37 H11         -2.5070     2.0810    -2.3560 hc         1 NKJ       0.049367
     38 H12         -4.0370     2.9580     0.4900 h5         1 NKJ       0.063100
     39 H13         -0.0920    -4.3040    -0.3400 ha         1 NKJ       0.132000
     40 H14         -4.0440    -2.6470    -0.0430 ha         1 NKJ       0.154000
     41 H15          6.7310     0.2220     0.7130 ha         1 NKJ       0.119000
     42 H16          6.1140    -2.1370     0.2540 ha         1 NKJ       0.120000
     43 H17          0.8850     3.7750     0.8410 hc         1 NKJ       0.060700
     44 H18          0.6360     3.0440    -0.7260 hc         1 NKJ       0.060700
     45 H19         -1.0140     0.9700    -0.7170 h1         1 NKJ       0.113700
@<TRIPOS>BOND
     1     1    14 ar  
     2     1    15 ar  
     3     1    27 1   
     4     2     3 1   
     5     2    13 1   
     6     2    28 1   
     7     3     4 1   
     8     3    25 2   
     9     4     6 ar  
    10     4    16 ar  
    11     5    16 ar  
    12     5    17 ar  
    13     5    29 1   
    14     6    18 ar  
    15     6    30 1   
    16     7    19 1   
    17     7    26 1   
    18     7    31 1   
    19     7    32 1   
    20     8    19 1   
    21     8    20 1   
    22     8    33 1   
    23     8    34 1   
    24     9    20 1   
    25     9    35 1   
    26     9    36 1   
    27     9    37 1   
    28    10    12 1   
    29    10    21 1   
    30    10    22 2   
    31    11    21 1   
    32    11    23 2   
    33    11    38 1   
    34    12    15 ar  
    35    12    24 ar  
    36    13    14 ar  
    37    13    24 ar  
    38    14    39 1   
    39    15    40 1   
    40    16    26 1   
    41    17    18 ar  
    42    17    41 1   
    43    18    42 1   
    44    19    43 1   
    45    19    44 1   
    46    20    21 1   
    47    20    45 1   
    48    22    23 1   
@<TRIPOS>SUBSTRUCTURE
     1 NKJ         1 TEMP              0 ****  ****    0 ROOT
