@<TRIPOS>MOLECULE
NKJ
   45    48     1     0     0
SMALL
No Charge or Current Charge


@<TRIPOS>ATOM
      1 C10         -2.1370    -3.7790     0.0040 ca         1 NKJ      -0.066000
      2 N12          1.1020    -1.9990    -0.3020 ns         1 NKJ      -0.351900
      3 C13          1.7140    -0.9150    -0.8900 c          1 NKJ       0.628700
      4 C15          3.0960    -0.6220    -0.3850 ca         1 NKJ      -0.196600
      5 C17          4.8010     0.9670     0.3500 ca         1 NKJ      -0.134000
      6 C20          4.0310    -1.6710    -0.2340 ca         1 NKJ      -0.074000
      7 C22          1.4540     1.7450     0.8050 c3         1 NKJ       0.161600
      8 C24         -0.9500     2.7010     0.7350 c3         1 NKJ      -0.084400
      9 C26         -1.9170     2.6460    -1.6550 c3         1 NKJ      -0.107100
     10 C02         -3.2400    -0.1350     0.2870 cc         1 NKJ       0.323500
     11 C05         -4.0360     1.9160     0.4810 cc         1 NKJ       0.366400
     12 C06         -2.3740    -1.3440     0.1080 ca         1 NKJ       0.346000
     13 C08         -0.2640    -2.2870    -0.2370 ca         1 NKJ       0.471900
     14 C09         -0.7580    -3.5960    -0.1840 ca         1 NKJ      -0.157000
     15 C11         -2.9490    -2.6390     0.1510 ca         1 NKJ      -0.123000
     16 C16          3.4840     0.7010    -0.0600 ca         1 NKJ       0.168100
     17 C18          5.7310    -0.0780     0.4740 ca         1 NKJ      -0.075000
     18 C19          5.3420    -1.3970     0.1920 ca         1 NKJ      -0.129000
     19 C23          0.5600     2.9650     0.4820 c3         1 NKJ      -0.076400
     20 C25         -1.6470     1.8440    -0.3610 c3         1 NKJ       0.081300
     21 N01         -2.8990     1.2170     0.1400 na         1 NKJ      -0.338000
     22 N03         -4.5160    -0.1990     0.6540 nd         1 NKJ      -0.361000
     23 N04         -5.0080     1.0730     0.7780 nd         1 NKJ      -0.361000
     24 N07         -1.0350    -1.2010    -0.0620 nb         1 NKJ      -0.702000
     25 O14          1.1890    -0.2480    -1.7740 o          1 NKJ      -0.548100
     26 O21          2.5920     1.7520    -0.0810 os         1 NKJ      -0.362100
     27 H1          -2.5670    -4.7790     0.0440 ha         1 NKJ       0.128000
     28 H2           1.6750    -2.5380     0.3310 hn         1 NKJ       0.166000
     29 H3           5.0930     1.9850     0.5930 ha         1 NKJ       0.131000
     30 H4           3.7550    -2.6960    -0.4720 ha         1 NKJ       0.116000
     31 H5           1.7750     1.7900     1.8540 h1         1 NKJ       0.039700
     32 H6           0.8660     0.8300     0.6870 h1         1 NKJ       0.039700
     33 H7          -1.0550     2.2030     1.7070 hc         1 NKJ       0.053200
     34 H8          -1.4740     3.6610     0.8260 hc         1 NKJ       0.053200
     35 H9          -2.5600     3.5130    -1.4590 hc         1 NKJ       0.049367
     36 H10         -0.9820     3.0070    -2.0990 hc         1 NKJ       0.049367
     37 H11         -2.4140     2.0130    -2.4000 hc         1 NKJ       0.049367
     38 H12         -4.0960     2.9970     0.4710 h5         1 NKJ       0.063100
     39 H13         -0.0870    -4.4440    -0.2820 ha         1 NKJ       0.132000
     40 H14         -4.0190    -2.7600     0.2980 ha         1 NKJ       0.154000
     41 H15          6.7480     0.1330     0.8000 ha         1 NKJ       0.119000
     42 H16          6.0600    -2.2080     0.2940 ha         1 NKJ       0.120000
     43 H17          0.8880     3.8050     1.1070 hc         1 NKJ       0.060700
     44 H18          0.7130     3.2760    -0.5580 hc         1 NKJ       0.060700
     45 H19         -0.9450     1.0630    -0.6560 h1         1 NKJ       0.113700
@<TRIPOS>BOND
     1     1    14 ar  
     2     1    15 ar  
     3     1    27 1   
     4     2     3 1   
     5     2    13 1   
     6     2    28 1   
     7     3     4 1   
     8     3    25 2   
     9     4     6 ar  
    10     4    16 ar  
    11     5    16 ar  
    12     5    17 ar  
    13     5    29 1   
    14     6    18 ar  
    15     6    30 1   
    16     7    19 1   
    17     7    26 1   
    18     7    31 1   
    19     7    32 1   
    20     8    19 1   
    21     8    20 1   
    22     8    33 1   
    23     8    34 1   
    24     9    20 1   
    25     9    35 1   
    26     9    36 1   
    27     9    37 1   
    28    10    12 1   
    29    10    21 1   
    30    10    22 2   
    31    11    21 1   
    32    11    23 2   
    33    11    38 1   
    34    12    15 ar  
    35    12    24 ar  
    36    13    14 ar  
    37    13    24 ar  
    38    14    39 1   
    39    15    40 1   
    40    16    26 1   
    41    17    18 ar  
    42    17    41 1   
    43    18    42 1   
    44    19    43 1   
    45    19    44 1   
    46    20    21 1   
    47    20    45 1   
    48    22    23 1   
@<TRIPOS>SUBSTRUCTURE
     1 NKJ         1 TEMP              0 ****  ****    0 ROOT
