@<TRIPOS>MOLECULE
NKK
   85    86     1     0     0
SMALL
No Charge or Current Charge


@<TRIPOS>ATOM
      1 CAW         16.9520    58.8890    -0.7760 c          1 NKK       0.563900
      2 CBJ         14.5050    51.2550     0.3050 ca         1 NKK      -0.011000
      3 CBI         14.6400    50.3710    -0.7810 ca         1 NKK      -0.047000
      4 CBL         13.6690    50.3460    -1.8010 ca         1 NKK      -0.078000
      5 CBM         13.8090    49.4610    -2.8850 ca         1 NKK      -0.113000
      6 CBO         14.9170    48.6000    -2.9530 ca         1 NKK      -0.094000
      7 CBN         15.8880    48.6210    -1.9370 ca         1 NKK      -0.108000
      8 CBH         15.7520    49.5050    -0.8490 ca         1 NKK      -0.018000
      9 CBG         16.7170    49.5320     0.1710 ca         1 NKK      -0.104000
     10 CBF         16.5800    50.4150     1.2560 ca         1 NKK      -0.091000
     11 CBK         15.4690    51.2910     1.3370 ca         1 NKK      -0.159600
     12 OAB         14.4090    53.1120     2.4900 o          1 NKK      -0.616100
     13 N           16.1810    52.1490     3.5290 ns         1 NKK      -0.513900
     14 CA          16.1130    52.9480     4.7800 c3         1 NKK       0.035700
     15 CB          16.7510    52.1780     5.9630 c3         1 NKK      -0.086400
     16 CG          16.0450    50.8380     6.2940 c3         1 NKK      -0.069400
     17 CD          16.6940    50.0460     7.4550 c3         1 NKK      -0.114400
     18 CE          16.5980    50.7430     8.8280 c3         1 NKK       0.136800
     19 NZ          17.1690    49.8940     9.8910 n8         1 NKK      -0.988200
     20 O           16.5840    55.2560     5.4280 o          1 NKK      -0.603100
     21 NAL         17.4580    54.5630     3.4460 ns         1 NKK      -0.494900
     22 CAM         17.9660    55.8630     2.9640 c3         1 NKK       0.039700
     23 CAP         19.4880    56.0100     3.2090 c3         1 NKK      -0.084400
     24 CAQ         19.8960    56.0050     4.7020 c3         1 NKK      -0.069400
     25 CAR         21.4170    56.2000     4.9120 c3         1 NKK      -0.071400
     26 CAS         21.8670    56.1570     6.3900 c3         1 NKK       0.150800
     27 NAT         21.3390    57.2920     7.1730 n8         1 NKK      -1.001200
     28 CAN         17.6180    55.9850     1.4570 c          1 NKK       0.584100
     29 OAO         17.6910    55.0390     0.6810 o          1 NKK      -0.605100
     30 NAU         17.1690    57.2270     1.0530 ns         1 NKK      -0.494900
     31 CAV         16.5150    57.4980    -0.2490 c3         1 NKK      -0.020300
     32 OAX         16.2490    59.8950    -0.7380 o          1 NKK      -0.504100
     33 CAY         14.9700    57.3410    -0.1380 c3         1 NKK      -0.080400
     34 CAZ         14.4930    55.9170     0.2510 c3         1 NKK      -0.095400
     35 CBA         12.9610    55.7890     0.3300 c3         1 NKK       0.243800
     36 NBB         12.5770    54.4070     0.6220 nu         1 NKK      -0.954400
     37 CBC         11.3310    54.0670     0.7610 c2         1 NKK       0.812100
     38 NBE         11.0920    53.4150     1.7780 n2         1 NKK      -0.910100
     39 NBD         11.1010    53.5670    -0.4040 nv         1 NKK      -1.079200
     40 H1AW        17.9770    58.9270    -1.2070 h4         1 NKK       0.000200
     41 HBL         12.8080    51.0090    -1.7560 ha         1 NKK       0.122000
     42 HBM         13.0580    49.4440    -3.6720 ha         1 NKK       0.116000
     43 HBO         15.0240    47.9160    -3.7920 ha         1 NKK       0.113000
     44 HBN         16.7430    47.9520    -1.9950 ha         1 NKK       0.114000
     45 HBG         17.5780    48.8680     0.1260 ha         1 NKK       0.115000
     46 HBF         17.3530    50.4090     2.0210 ha         1 NKK       0.106000
     47 HN          16.8590    51.4000     3.4700 hn         1 NKK       0.321500
     48 HA          15.0560    53.1250     5.0170 h1         1 NKK       0.104700
     49 H1B         17.8100    51.9910     5.7440 hc         1 NKK       0.058200
     50 H2B         16.7240    52.8240     6.8490 hc         1 NKK       0.058200
     51 H1G         14.9920    51.0310     6.5330 hc         1 NKK       0.045700
     52 H2G         16.0490    50.1980     5.4030 hc         1 NKK       0.045700
     53 H1D         16.2010    49.0670     7.5180 hc         1 NKK       0.037700
     54 H2D         17.7470    49.8530     7.2130 hc         1 NKK       0.037700
     55 H1E         17.1440    51.6970     8.8060 h1         1 NKK       0.056200
     56 H2E         15.5450    50.9530     9.0650 h1         1 NKK       0.056200
     57 H1NZ        16.6920    48.9850     9.8830 hn         1 NKK       0.388500
     58 H2NZ        18.1380    49.6590     9.6450 hn         1 NKK       0.388500
     59 HNAL        17.5020    53.7720     2.8130 hn         1 NKK       0.331500
     60 HAM         17.4390    56.6720     3.4880 h1         1 NKK       0.089700
     61 H1AP        20.0160    55.2020     2.6870 hc         1 NKK       0.052200
     62 H2AP        19.8270    56.9500     2.7560 hc         1 NKK       0.052200
     63 H1AQ        19.3490    56.7990     5.2250 hc         1 NKK       0.054700
     64 H2AQ        19.5950    55.0550     5.1610 hc         1 NKK       0.054700
     65 H1AR        21.9510    55.4090     4.3700 hc         1 NKK       0.036200
     66 H2AR        21.7310    57.1510     4.4640 hc         1 NKK       0.036200
     67 H1AS        21.5320    55.2190     6.8530 h1         1 NKK       0.028200
     68 H2AS        22.9640    56.1880     6.4340 h1         1 NKK       0.028200
     69 H1AT        21.7340    57.2570     8.1210 hn         1 NKK       0.393000
     70 H2AT        21.7170    58.1660     6.7880 hn         1 NKK       0.393000
     71 HNAU        17.1490    57.9540     1.7620 hn         1 NKK       0.321500
     72 HAV         16.8860    56.7770    -0.9900 h1         1 NKK       0.105700
     73 H1AY        14.5850    58.0600     0.5970 hc         1 NKK       0.057200
     74 H2AY        14.5190    57.6080    -1.1030 hc         1 NKK       0.057200
     75 H1AZ        14.8790    55.1970    -0.4810 hc         1 NKK       0.058200
     76 H2AZ        14.9080    55.6410     1.2270 hc         1 NKK       0.058200
     77 H1BA        12.5810    56.4580     1.1150 h1         1 NKK       0.031200
     78 H2BA        12.5220    56.1050    -0.6270 h1         1 NKK       0.031200
     79 HNBB        13.0760    53.9930     1.4120 hn         1 NKK       0.538000
     80 H1BE        10.3610    52.7530     1.5030 hn         1 NKK       0.368400
     81 H1BD        11.9550    53.7280    -0.9120 hn         1 NKK       0.450500
     82 H2BD        10.3080    54.0090    -0.8450 hn         1 NKK       0.450500
     83 C           16.7450    54.3620     4.6090 c          1 NKK       0.591100
     84 CAA         15.2860    52.2590     2.4850 c          1 NKK       0.619700
     85 HBJ         13.6390    51.9100     0.3470 ha         1 NKK       0.139000
@<TRIPOS>BOND
     1     1    31 1   
     2     1    32 2   
     3     1    40 1   
     4     2     3 ar  
     5     2    11 ar  
     6     2    85 1   
     7     3     4 ar  
     8     3     8 ar  
     9     4     5 ar  
    10     4    41 1   
    11     5     6 ar  
    12     5    42 1   
    13     6     7 ar  
    14     6    43 1   
    15     7     8 ar  
    16     7    44 1   
    17     8     9 ar  
    18     9    10 ar  
    19     9    45 1   
    20    10    11 ar  
    21    10    46 1   
    22    11    84 1   
    23    12    84 2   
    24    13    14 1   
    25    13    47 1   
    26    13    84 1   
    27    14    15 1   
    28    14    48 1   
    29    14    83 1   
    30    15    16 1   
    31    15    49 1   
    32    15    50 1   
    33    16    17 1   
    34    16    51 1   
    35    16    52 1   
    36    17    18 1   
    37    17    53 1   
    38    17    54 1   
    39    18    19 1   
    40    18    55 1   
    41    18    56 1   
    42    19    57 1   
    43    19    58 1   
    44    20    83 2   
    45    21    22 1   
    46    21    59 1   
    47    21    83 1   
    48    22    23 1   
    49    22    28 1   
    50    22    60 1   
    51    23    24 1   
    52    23    61 1   
    53    23    62 1   
    54    24    25 1   
    55    24    63 1   
    56    24    64 1   
    57    25    26 1   
    58    25    65 1   
    59    25    66 1   
    60    26    27 1   
    61    26    67 1   
    62    26    68 1   
    63    27    69 1   
    64    27    70 1   
    65    28    29 2   
    66    28    30 1   
    67    30    31 1   
    68    30    71 1   
    69    31    33 1   
    70    31    72 1   
    71    33    34 1   
    72    33    73 1   
    73    33    74 1   
    74    34    35 1   
    75    34    75 1   
    76    34    76 1   
    77    35    36 1   
    78    35    77 1   
    79    35    78 1   
    80    36    37 1   
    81    36    79 1   
    82    37    38 2   
    83    37    39 1   
    84    38    80 1   
    85    39    81 1   
    86    39    82 1   
@<TRIPOS>SUBSTRUCTURE
     1 NKK         1 TEMP              0 ****  ****    0 ROOT
