@<TRIPOS>MOLECULE
NKK
   85    86     1     0     0
SMALL
abcg2


@<TRIPOS>ATOM
      1 CAW         16.8360    58.6610    -0.6130 c          1 NKK       0.563900
      2 CBJ         14.8830    51.6300     0.2490 ca         1 NKK      -0.011000
      3 CBI         14.9860    50.7670    -0.8620 ca         1 NKK      -0.047000
      4 CBL         14.5520    51.1590    -2.1530 ca         1 NKK      -0.078000
      5 CBM         14.6630    50.3000    -3.2160 ca         1 NKK      -0.113000
      6 CBO         15.2120    49.0090    -3.0350 ca         1 NKK      -0.094000
      7 CBN         15.6390    48.6010    -1.7970 ca         1 NKK      -0.108000
      8 CBH         15.5400    49.4650    -0.6800 ca         1 NKK      -0.018000
      9 CBG         15.9670    49.0840     0.6160 ca         1 NKK      -0.104000
     10 CBF         15.8670    49.9470     1.6740 ca         1 NKK      -0.091000
     11 CBK         15.3190    51.2430     1.4960 ca         1 NKK      -0.159600
     12 OAB         14.3370    53.1090     2.6240 o          1 NKK      -0.616100
     13 N           16.0740    52.0910     3.6340 ns         1 NKK      -0.513900
     14 CA          16.0430    52.9590     4.7950 c3         1 NKK       0.035700
     15 CB          16.8690    52.3570     5.9370 c3         1 NKK      -0.086400
     16 CG          16.2820    51.0530     6.4750 c3         1 NKK      -0.069400
     17 CD          17.1070    50.4280     7.6010 c3         1 NKK      -0.114400
     18 CE          17.1220    51.2480     8.8940 c3         1 NKK       0.136800
     19 NZ          17.8450    50.6300    10.0140 n8         1 NKK      -0.988200
     20 O           16.1750    55.3090     5.2410 o          1 NKK      -0.603100
     21 NAL         17.3530    54.5290     3.4600 ns         1 NKK      -0.494900
     22 CAM         17.9060    55.7980     3.0190 c3         1 NKK       0.039700
     23 CAP         19.4250    55.8630     3.2150 c3         1 NKK      -0.084400
     24 CAQ         19.8410    55.7640     4.6790 c3         1 NKK      -0.069400
     25 CAR         21.3580    55.7770     4.8520 c3         1 NKK      -0.071400
     26 CAS         21.8230    55.6440     6.2990 c3         1 NKK       0.150800
     27 NAT         21.4090    56.7980     7.1110 n8         1 NKK      -1.001200
     28 CAN         17.5530    55.9560     1.5410 c          1 NKK       0.584100
     29 OAO         17.8730    55.0960     0.7240 o          1 NKK      -0.605100
     30 NAU         16.8800    57.0780     1.2180 ns         1 NKK      -0.494900
     31 CAV         16.3410    57.3210    -0.1090 c3         1 NKK      -0.020300
     32 OAX         16.1980    59.4060    -1.3170 o          1 NKK      -0.504100
     33 CAY         14.8240    57.1570    -0.1730 c3         1 NKK      -0.080400
     34 CAZ         14.3730    55.7550     0.2190 c3         1 NKK      -0.095400
     35 CBA         12.8630    55.5860     0.1190 c3         1 NKK       0.243800
     36 NBB         12.4760    54.2650     0.5780 nu         1 NKK      -0.954400
     37 CBC         11.3170    53.6180     0.2840 c2         1 NKK       0.812100
     38 NBE         11.0990    52.4350     0.7790 n2         1 NKK      -0.910100
     39 NBD         10.4700    54.2640    -0.6000 nv         1 NKK      -1.079200
     40 H1AW        17.8650    58.9140    -0.2930 h4         1 NKK       0.000200
     41 HBL         14.1310    52.1490    -2.2820 ha         1 NKK       0.122000
     42 HBM         14.3300    50.6050    -4.1990 ha         1 NKK       0.116000
     43 HBO         15.2930    48.3420    -3.8830 ha         1 NKK       0.113000
     44 HBN         16.0590    47.6120    -1.6570 ha         1 NKK       0.114000
     45 HBG         16.3720    48.0890     0.7610 ha         1 NKK       0.115000
     46 HBF         16.1810    49.6170     2.6560 ha         1 NKK       0.106000
     47 HN          16.8060    51.4010     3.5710 hn         1 NKK       0.321500
     48 HA          15.0060    53.0670     5.1170 h1         1 NKK       0.104700
     49 H1B         17.8930    52.1910     5.5840 hc         1 NKK       0.058200
     50 H2B         16.9220    53.1050     6.7270 hc         1 NKK       0.058200
     51 H1G         15.2630    51.2430     6.8310 hc         1 NKK       0.045700
     52 H2G         16.1940    50.3310     5.6590 hc         1 NKK       0.045700
     53 H1D         16.7030    49.4370     7.8300 hc         1 NKK       0.037700
     54 H2D         18.1380    50.2760     7.2610 hc         1 NKK       0.037700
     55 H1E         17.5680    52.2280     8.7140 h1         1 NKK       0.056200
     56 H2E         16.0910    51.4270     9.2140 h1         1 NKK       0.056200
     57 H1NZ        17.4570    49.7100    10.1990 hn         1 NKK       0.388500
     58 H2NZ        18.8120    50.4730     9.7460 hn         1 NKK       0.388500
     59 HNAL        17.5700    53.7160     2.9020 hn         1 NKK       0.331500
     60 HAM         17.4250    56.5750     3.6110 h1         1 NKK       0.089700
     61 H1AP        19.8840    55.0560     2.6370 hc         1 NKK       0.052200
     62 H2AP        19.7820    56.8050     2.7890 hc         1 NKK       0.052200
     63 H1AQ        19.3960    56.5880     5.2420 hc         1 NKK       0.054700
     64 H2AQ        19.4420    54.8400     5.1090 hc         1 NKK       0.054700
     65 H1AR        21.7930    54.9540     4.2750 hc         1 NKK       0.036200
     66 H2AR        21.7700    56.7010     4.4300 hc         1 NKK       0.036200
     67 H1AS        21.3790    54.7470     6.7410 h1         1 NKK       0.028200
     68 H2AS        22.9120    55.4960     6.3060 h1         1 NKK       0.028200
     69 H1AT        21.7250    56.6750     8.0670 hn         1 NKK       0.393000
     70 H2AT        21.8750    57.6330     6.7680 hn         1 NKK       0.393000
     71 HNAU        16.5790    57.6850     1.9660 hn         1 NKK       0.321500
     72 HAV         16.8170    56.5780    -0.7610 h1         1 NKK       0.105700
     73 H1AY        14.3570    57.9010     0.4810 hc         1 NKK       0.057200
     74 H2AY        14.5030    57.3860    -1.1920 hc         1 NKK       0.057200
     75 H1AZ        14.8580    55.0170    -0.4250 hc         1 NKK       0.058200
     76 H2AZ        14.6880    55.5370     1.2420 hc         1 NKK       0.058200
     77 H1BA        12.3680    56.3750     0.7010 h1         1 NKK       0.031200
     78 H2BA        12.5580    55.7140    -0.9220 h1         1 NKK       0.031200
     79 HNBB        13.0520    53.8260     1.2880 hn         1 NKK       0.538000
     80 H1BE        10.1900    52.0930     0.4810 hn         1 NKK       0.368400
     81 H1BD        10.4770    55.2730    -0.5970 hn         1 NKK       0.450500
     82 H2BD         9.5380    53.8820    -0.6450 hn         1 NKK       0.450500
     83 C           16.5230    54.3870     4.5050 c          1 NKK       0.591100
     84 CAA         15.1920    52.2170     2.6200 c          1 NKK       0.619700
     85 HBJ         14.4570    52.6130     0.1080 ha         1 NKK       0.139000
@<TRIPOS>BOND
     1     1    31 1   
     2     1    32 2   
     3     1    40 1   
     4     2     3 ar  
     5     2    11 ar  
     6     2    85 1   
     7     3     4 ar  
     8     3     8 ar  
     9     4     5 ar  
    10     4    41 1   
    11     5     6 ar  
    12     5    42 1   
    13     6     7 ar  
    14     6    43 1   
    15     7     8 ar  
    16     7    44 1   
    17     8     9 ar  
    18     9    10 ar  
    19     9    45 1   
    20    10    11 ar  
    21    10    46 1   
    22    11    84 1   
    23    12    84 2   
    24    13    14 1   
    25    13    47 1   
    26    13    84 1   
    27    14    15 1   
    28    14    48 1   
    29    14    83 1   
    30    15    16 1   
    31    15    49 1   
    32    15    50 1   
    33    16    17 1   
    34    16    51 1   
    35    16    52 1   
    36    17    18 1   
    37    17    53 1   
    38    17    54 1   
    39    18    19 1   
    40    18    55 1   
    41    18    56 1   
    42    19    57 1   
    43    19    58 1   
    44    20    83 2   
    45    21    22 1   
    46    21    59 1   
    47    21    83 1   
    48    22    23 1   
    49    22    28 1   
    50    22    60 1   
    51    23    24 1   
    52    23    61 1   
    53    23    62 1   
    54    24    25 1   
    55    24    63 1   
    56    24    64 1   
    57    25    26 1   
    58    25    65 1   
    59    25    66 1   
    60    26    27 1   
    61    26    67 1   
    62    26    68 1   
    63    27    69 1   
    64    27    70 1   
    65    28    29 2   
    66    28    30 1   
    67    30    31 1   
    68    30    71 1   
    69    31    33 1   
    70    31    72 1   
    71    33    34 1   
    72    33    73 1   
    73    33    74 1   
    74    34    35 1   
    75    34    75 1   
    76    34    76 1   
    77    35    36 1   
    78    35    77 1   
    79    35    78 1   
    80    36    37 1   
    81    36    79 1   
    82    37    38 2   
    83    37    39 1   
    84    38    80 1   
    85    39    81 1   
    86    39    82 1   
@<TRIPOS>SUBSTRUCTURE
     1 NKK         1 TEMP              0 ****  ****    0 ROOT
