@<TRIPOS>MOLECULE
NKL
   56    59     1     0     0
SMALL
abcg2


@<TRIPOS>ATOM
      1 O1          21.9850    24.9040    -1.7400 o          1 NKL      -0.589100
      2 C1          21.4470    24.3260    -2.6880 c          1 NKL       0.598100
      3 C2          21.8280    24.7490    -4.1000 c3         1 NKL       0.044600
      4 N1          20.5490    23.3340    -2.5390 n          1 NKL      -0.406800
      5 C3          20.0990    22.9440    -1.2020 c6         1 NKL       0.100500
      6 C4          18.6070    23.2200    -1.0480 c6         1 NKL      -0.085900
      7 C5          17.7990    22.5260    -2.1440 cy         1 NKL      -0.089000
      8 C6          18.3290    22.9100    -3.5160 c6         1 NKL      -0.085900
      9 C7          19.8330    22.6520    -3.6180 c6         1 NKL       0.100500
     10 C8          17.6330    21.0030    -1.8690 cy         1 NKL       0.107500
     11 N2          16.2560    21.2800    -1.4310 nj         1 NKL      -0.425800
     12 C9          15.3050    20.6950    -0.6970 c          1 NKL       0.596100
     13 O2          14.2280    21.2630    -0.4930 o          1 NKL      -0.604100
     14 C10         15.5970    19.2860    -0.1210 c6         1 NKL       0.185200
     15 N3          16.9190    19.2120     0.4940 nu         1 NKL      -0.976200
     16 C11         17.4930    20.1900     1.2780 ca         1 NKL       0.323000
     17 C12         16.7680    21.2390     1.8640 ca         1 NKL      -0.185000
     18 C13         17.4130    22.2240     2.6020 ca         1 NKL      -0.058500
     19 C14         18.7870    22.1750     2.7720 ca         1 NKL       0.069000
     20 CL2         19.6020    23.4420     3.6740 cl         1 NKL      -0.212000
     21 C15         19.5270    21.1370     2.2190 ca         1 NKL      -0.058500
     22 C16         18.8850    20.1570     1.4840 ca         1 NKL      -0.185000
     23 C17         14.4990    18.8880     0.8860 c6         1 NKL      -0.111900
     24 C18         14.6110    17.4200     1.2640 c6         1 NKL       0.154100
     25 O3          14.5180    16.5710     0.1190 os         1 NKL      -0.452000
     26 C19         15.5680    16.8340    -0.8050 c6         1 NKL       0.154100
     27 C20         15.5430    18.2790    -1.2900 c6         1 NKL      -0.111900
     28 C21         16.2700    22.6620    -1.9160 cy         1 NKL       0.107500
     29 H1          22.7150    25.3670    -4.0370 h1         1 NKL       0.087700
     30 H2          21.9890    23.9210    -4.7820 h1         1 NKL       0.087700
     31 CL1         20.5270    25.7890    -4.8190 cl         1 NKL      -0.265000
     32 H4          20.3030    21.8780    -1.0710 h1         1 NKL       0.058200
     33 H5          20.6790    23.4930    -0.4680 h1         1 NKL       0.058200
     34 H6          18.4320    24.2980    -1.1040 hc         1 NKL       0.064200
     35 H7          18.2770    22.8840    -0.0640 hc         1 NKL       0.064200
     36 H8          18.1360    23.9710    -3.6950 hc         1 NKL       0.064200
     37 H9          17.8160    22.3430    -4.2960 hc         1 NKL       0.064200
     38 H10         20.0340    21.5800    -3.5260 h1         1 NKL       0.058200
     39 H11         20.2050    22.9690    -4.5850 h1         1 NKL       0.058200
     40 H12         17.6610    20.3830    -2.7670 h1         1 NKL       0.059950
     41 H13         18.2850    20.5780    -1.1130 h1         1 NKL       0.059950
     42 H14         17.5810    18.6140     0.0270 hn         1 NKL       0.475000
     43 H15         15.6990    21.3140     1.7380 ha         1 NKL       0.123000
     44 H16         16.8380    23.0320     3.0330 ha         1 NKL       0.130000
     45 H17         20.6010    21.1010     2.3490 ha         1 NKL       0.130000
     46 H18         19.4660    19.3600     1.0360 ha         1 NKL       0.123000
     47 H19         14.5660    19.4950     1.7890 hc         1 NKL       0.068450
     48 H20         13.5240    19.0750     0.4380 hc         1 NKL       0.068450
     49 H21         13.7930    17.1340     1.9240 h1         1 NKL       0.050450
     50 H22         15.5580    17.2280     1.7840 h1         1 NKL       0.050450
     51 H23         15.4200    16.1570    -1.6470 h1         1 NKL       0.050450
     52 H24         16.5330    16.5920    -0.3420 h1         1 NKL       0.050450
     53 H25         16.3760    18.4500    -1.9760 hc         1 NKL       0.068450
     54 H26         14.6170    18.4510    -1.8420 hc         1 NKL       0.068450
     55 H27         15.9570    23.3910    -1.1670 h1         1 NKL       0.059950
     56 H28         15.6850    22.7970    -2.8290 h1         1 NKL       0.059950
@<TRIPOS>BOND
     1     1     2 2   
     2     2     3 1   
     3     2     4 1   
     4     3    29 1   
     5     3    30 1   
     6     3    31 1   
     7     4     5 1   
     8     4     9 1   
     9     5     6 1   
    10     5    32 1   
    11     5    33 1   
    12     6     7 1   
    13     6    34 1   
    14     6    35 1   
    15     7     8 1   
    16     7    10 1   
    17     7    28 1   
    18     8     9 1   
    19     8    36 1   
    20     8    37 1   
    21     9    38 1   
    22     9    39 1   
    23    10    11 1   
    24    10    40 1   
    25    10    41 1   
    26    11    12 1   
    27    11    28 1   
    28    12    13 2   
    29    12    14 1   
    30    14    15 1   
    31    14    23 1   
    32    14    27 1   
    33    15    16 1   
    34    15    42 1   
    35    16    17 ar  
    36    16    22 ar  
    37    17    18 ar  
    38    17    43 1   
    39    18    19 ar  
    40    18    44 1   
    41    19    20 1   
    42    19    21 ar  
    43    21    22 ar  
    44    21    45 1   
    45    22    46 1   
    46    23    24 1   
    47    23    47 1   
    48    23    48 1   
    49    24    25 1   
    50    24    49 1   
    51    24    50 1   
    52    25    26 1   
    53    26    27 1   
    54    26    51 1   
    55    26    52 1   
    56    27    53 1   
    57    27    54 1   
    58    28    55 1   
    59    28    56 1   
@<TRIPOS>SUBSTRUCTURE
     1 NKL         1 TEMP              0 ****  ****    0 ROOT
