@<TRIPOS>MOLECULE
NKL
   56    59     1     0     0
SMALL
No Charge or Current Charge


@<TRIPOS>ATOM
      1 O1          21.2910    26.0170    -4.2120 o          1 NKL      -0.589100
      2 C1          20.5150    25.2420    -4.7610 c          1 NKL       0.598100
      3 C2          19.8790    25.6160    -6.1130 c3         1 NKL       0.044600
      4 N1          20.2230    23.9810    -4.1790 n          1 NKL      -0.406800
      5 C3          20.8190    23.5560    -2.8830 c6         1 NKL       0.100500
      6 C4          19.7470    23.5390    -1.7670 c6         1 NKL      -0.085900
      7 C5          18.5450    22.6370    -2.1630 cy         1 NKL      -0.089000
      8 C6          17.9850    23.0570    -3.5560 c6         1 NKL      -0.085900
      9 C7          19.1070    23.0970    -4.6220 c6         1 NKL       0.100500
     10 C8          18.8110    21.1000    -2.0210 cy         1 NKL       0.107500
     11 N2          17.4430    21.0070    -1.4000 nj         1 NKL      -0.425800
     12 C9          17.7540    20.4220    -0.1220 c          1 NKL       0.596100
     13 O2          18.6370    20.6850     0.6980 o          1 NKL      -0.604100
     14 C10         16.7120    19.2310     0.1880 c6         1 NKL       0.185200
     15 N3          16.9070    18.5710     1.5350 nu         1 NKL      -0.976200
     16 C11         16.9070    19.2550     2.7530 ca         1 NKL       0.323000
     17 C12         15.7230    19.7640     3.3150 ca         1 NKL      -0.185000
     18 C13         15.7500    20.4230     4.5580 ca         1 NKL      -0.058500
     19 C14         16.9630    20.5590     5.2520 ca         1 NKL       0.069000
     20 Cl2         16.9990    21.3810     6.8070 cl         1 NKL      -0.212000
     21 C15         18.1440    20.0270     4.7120 ca         1 NKL      -0.058500
     22 C16         18.1110    19.3680     3.4690 ca         1 NKL      -0.185000
     23 C17         15.2320    19.7340     0.0230 c6         1 NKL      -0.111900
     24 C18         14.2050    18.5790     0.0970 c6         1 NKL       0.154100
     25 O3          14.4890    17.6190    -0.9400 os         1 NKL      -0.452000
     26 C19         15.7930    17.0180    -0.8160 c6         1 NKL       0.154100
     27 C20         16.8880    18.1120    -0.8970 c6         1 NKL      -0.111900
     28 C21         17.4540    22.4720    -1.0550 cy         1 NKL       0.107500
     29 H1          20.4780    26.4130    -6.5690 h1         1 NKL       0.087700
     30 H2          19.8890    24.7460    -6.7790 h1         1 NKL       0.087700
     31 Cl1         18.1610    26.2300    -5.9650 cl         1 NKL      -0.265000
     32 H4          21.2450    22.5490    -2.9990 h1         1 NKL       0.058200
     33 H5          21.6450    24.2190    -2.5890 h1         1 NKL       0.058200
     34 H6          19.3990    24.5650    -1.5860 hc         1 NKL       0.064200
     35 H7          20.1980    23.1940    -0.8260 hc         1 NKL       0.064200
     36 H8          17.5230    24.0520    -3.4850 hc         1 NKL       0.064200
     37 H9          17.1910    22.3710    -3.8820 hc         1 NKL       0.064200
     38 H10         19.5010    22.0810    -4.7750 h1         1 NKL       0.058200
     39 H11         18.6810    23.4160    -5.5810 h1         1 NKL       0.058200
     40 H12         18.8780    20.5650    -2.9750 h1         1 NKL       0.059950
     41 H13         19.6770    20.8450    -1.3980 h1         1 NKL       0.059950
     42 H14         17.6290    17.8510     1.5270 hn         1 NKL       0.475000
     43 H15         14.7740    19.6330     2.8080 ha         1 NKL       0.123000
     44 H16         14.8320    20.8180     4.9870 ha         1 NKL       0.130000
     45 H17         19.0820    20.1240     5.2540 ha         1 NKL       0.130000
     46 H18         19.0280    18.9600     3.0540 ha         1 NKL       0.123000
     47 H19         15.0000    20.5080     0.7630 hc         1 NKL       0.068450
     48 H20         15.0940    20.2210    -0.9510 hc         1 NKL       0.068450
     49 H21         13.1880    18.9710    -0.0490 h1         1 NKL       0.050450
     50 H22         14.2400    18.0810     1.0770 h1         1 NKL       0.050450
     51 H23         15.9290    16.2910    -1.6290 h1         1 NKL       0.050450
     52 H24         15.8550    16.4740     0.1380 h1         1 NKL       0.050450
     53 H25         17.8800    17.6500    -0.8040 hc         1 NKL       0.068450
     54 H26         16.8550    18.5440    -1.9070 hc         1 NKL       0.068450
     55 H27         17.7840    22.7590    -0.0490 h1         1 NKL       0.059950
     56 H28         16.5040    22.9680    -1.2850 h1         1 NKL       0.059950
@<TRIPOS>BOND
     1     1     2 2   
     2     2     3 1   
     3     2     4 1   
     4     3    29 1   
     5     3    30 1   
     6     3    31 1   
     7     4     5 1   
     8     4     9 1   
     9     5     6 1   
    10     5    32 1   
    11     5    33 1   
    12     6     7 1   
    13     6    34 1   
    14     6    35 1   
    15     7     8 1   
    16     7    10 1   
    17     7    28 1   
    18     8     9 1   
    19     8    36 1   
    20     8    37 1   
    21     9    38 1   
    22     9    39 1   
    23    10    11 1   
    24    10    40 1   
    25    10    41 1   
    26    11    12 1   
    27    11    28 1   
    28    12    13 2   
    29    12    14 1   
    30    14    15 1   
    31    14    23 1   
    32    14    27 1   
    33    15    16 1   
    34    15    42 1   
    35    16    17 ar  
    36    16    22 ar  
    37    17    18 ar  
    38    17    43 1   
    39    18    19 ar  
    40    18    44 1   
    41    19    20 1   
    42    19    21 ar  
    43    21    22 ar  
    44    21    45 1   
    45    22    46 1   
    46    23    24 1   
    47    23    47 1   
    48    23    48 1   
    49    24    25 1   
    50    24    49 1   
    51    24    50 1   
    52    25    26 1   
    53    26    27 1   
    54    26    51 1   
    55    26    52 1   
    56    27    53 1   
    57    27    54 1   
    58    28    55 1   
    59    28    56 1   
@<TRIPOS>SUBSTRUCTURE
     1 NKL         1 TEMP              0 ****  ****    0 ROOT
