@<TRIPOS>MOLECULE
NKM
   71    74     1     0     0
SMALL
No Charge or Current Charge


@<TRIPOS>ATOM
      1 C13         -0.5470     2.1490     0.0210 c6         1 NKM       0.406300
      2 C15         -1.0440     4.0900     1.5500 c6         1 NKM       0.174500
      3 C17         -2.7350     2.2710     1.0910 ce         1 NKM       0.048900
      4 C22         -5.2370    -0.6500     1.0790 c3         1 NKM       0.041700
      5 C24         -5.3400    -0.6690    -1.5260 c3         1 NKM      -0.072400
      6 C26         -3.3580    -2.2050    -0.7730 c3         1 NKM       0.114000
      7 C28         -4.8030    -2.1260     1.2970 c          1 NKM       0.551000
      8 C01          0.3350    -4.3140     0.0600 c3         1 NKM       0.148900
      9 C03          0.6640    -1.8740    -0.2910 c5         1 NKM       0.148300
     10 C04          1.8490    -1.4630     0.6530 c5         1 NKM       0.108300
     11 C05          2.9550    -1.3370    -0.4400 c5         1 NKM       0.303700
     12 C07          0.9190    -0.9520    -1.5410 c5         1 NKM       0.170300
     13 C08          0.0630     0.3450    -1.5540 c3         1 NKM       0.073300
     14 C09          0.2660     1.1590    -2.8660 c          1 NKM       0.587100
     15 C14          0.0140     3.0050     1.2010 c6         1 NKM       0.160300
     16 C16         -2.4270     3.4780     1.6320 c2         1 NKM      -0.308200
     17 C19         -4.0890     1.6110     1.2710 c          1 NKM       0.617300
     18 C23         -6.1100    -0.5160    -0.1900 c3         1 NKM      -0.089400
     19 C25         -4.5760    -2.0050    -1.7070 c3         1 NKM      -0.100400
     20 C33          3.9390     0.7580     0.5190 cc         1 NKM       0.007600
     21 C34          5.0060     1.4190     1.0820 cd         1 NKM      -0.386200
     22 C35          6.3100     0.7770     1.2600 c          1 NKM       0.589200
     23 C38          5.3390    -1.2330     0.2590 c          1 NKM       0.621000
     24 N11         -0.1110     0.5560    -4.0210 nt         1 NKM      -0.610000
     25 N21         -4.0690     0.2540     1.0380 ns         1 NKM      -0.490900
     26 N27         -3.7080    -2.5910     0.5990 ns         1 NKM      -0.513900
     27 N32          4.1060    -0.5700     0.1090 n          1 NKM      -0.321000
     28 N37          6.3440    -0.5070     0.8200 ns         1 NKM      -0.471500
     29 O02          0.8040    -3.2420    -0.7810 os         1 NKM      -0.446000
     30 O06          2.3320    -0.6020    -1.5100 os         1 NKM      -0.438000
     31 O10          0.7100     2.2960    -2.9050 o          1 NKM      -0.554100
     32 O12          0.3790     1.1120    -0.3590 os         1 NKM      -0.422000
     33 O18         -1.7900     1.5190     0.4000 os         1 NKM      -0.422100
     34 O20         -5.0960     2.1930     1.6550 o          1 NKM      -0.586100
     35 O30         -1.0620     5.1040     0.5410 oh         1 NKM      -0.636000
     36 O31          1.2810     3.6360     0.9030 oh         1 NKM      -0.673000
     37 O36          7.2800     1.3270     1.7510 o          1 NKM      -0.530000
     38 O39          5.5260    -2.3910    -0.0760 o          1 NKM      -0.554000
     39 O40          2.1380    -2.3790     1.7300 oh         1 NKM      -0.688000
     40 H131        -0.7270     2.8200    -0.8320 h2         1 NKM       0.086700
     41 H151        -0.7880     4.5300     2.5260 h1         1 NKM       0.049700
     42 H221        -5.8500    -0.3830     1.9510 h1         1 NKM       0.098700
     43 H242        -6.0620    -0.5710    -2.3470 hc         1 NKM       0.047200
     44 H241        -4.6370     0.1660    -1.6440 hc         1 NKM       0.047200
     45 H261        -2.7340    -3.0080    -1.1870 h1         1 NKM       0.040200
     46 H262        -2.7460    -1.2950    -0.7540 h1         1 NKM       0.040200
     47 H013         0.9400    -4.4140     0.9690 h1         1 NKM       0.037700
     48 H012        -0.7100    -4.1510     0.3530 h1         1 NKM       0.037700
     49 H011         0.3900    -5.2680    -0.4800 h1         1 NKM       0.037700
     50 H031        -0.3290    -1.7250     0.1550 h1         1 NKM       0.068700
     51 H041         1.6280    -0.4790     1.0850 h1         1 NKM       0.060700
     52 H051         3.2860    -2.3240    -0.7890 h2         1 NKM       0.122700
     53 H071         0.7180    -1.5130    -2.4640 h1         1 NKM       0.086700
     54 H081        -0.9890     0.0370    -1.5410 h1         1 NKM       0.056700
     55 H141         0.1270     2.3400     2.0690 h1         1 NKM       0.049700
     56 H2          -3.1720     4.0350     2.2050 ha         1 NKM       0.219000
     57 H232        -6.9190    -1.2570    -0.1500 hc         1 NKM       0.064200
     58 H231        -6.5960     0.4670    -0.1810 hc         1 NKM       0.064200
     59 H251        -5.2680    -2.8500    -1.6010 hc         1 NKM       0.052200
     60 H252        -4.2100    -2.0390    -2.7400 hc         1 NKM       0.052200
     61 H331         2.9500     1.1740     0.3290 h4         1 NKM       0.243000
     62 H341         4.9440     2.4490     1.4140 ha         1 NKM       0.224000
     63 H112        -0.5070    -0.3730    -4.0150 hn         1 NKM       0.315500
     64 H111        -0.0020     1.0550    -4.8920 hn         1 NKM       0.315500
     65 H211        -3.1660    -0.1210     0.7690 hn         1 NKM       0.333500
     66 H271        -3.3770    -3.4980     0.9070 hn         1 NKM       0.313500
     67 H371         7.2240    -0.9850     0.9250 hn         1 NKM       0.340500
     68 H301        -1.7970     5.7150     0.7690 ho         1 NKM       0.451000
     69 H311         1.0310     4.4920     0.4790 ho         1 NKM       0.511000
     70 H401         2.8410    -1.9690     2.2870 ho         1 NKM       0.516000
     71 O29         -5.3020    -2.8260     2.1640 o          1 NKM      -0.546000
@<TRIPOS>BOND
     1     1    15 1   
     2     1    32 1   
     3     1    33 1   
     4     1    40 1   
     5     2    15 1   
     6     2    16 1   
     7     2    35 1   
     8     2    41 1   
     9     3    16 2   
    10     3    17 1   
    11     3    33 1   
    12     4     7 1   
    13     4    18 1   
    14     4    25 1   
    15     4    42 1   
    16     5    18 1   
    17     5    19 1   
    18     5    43 1   
    19     5    44 1   
    20     6    19 1   
    21     6    26 1   
    22     6    45 1   
    23     6    46 1   
    24     7    26 1   
    25     7    71 2   
    26     8    29 1   
    27     8    47 1   
    28     8    48 1   
    29     8    49 1   
    30     9    10 1   
    31     9    12 1   
    32     9    29 1   
    33     9    50 1   
    34    10    11 1   
    35    10    39 1   
    36    10    51 1   
    37    11    27 1   
    38    11    30 1   
    39    11    52 1   
    40    12    13 1   
    41    12    30 1   
    42    12    53 1   
    43    13    14 1   
    44    13    32 1   
    45    13    54 1   
    46    14    24 1   
    47    14    31 2   
    48    15    36 1   
    49    15    55 1   
    50    16    56 1   
    51    17    25 1   
    52    17    34 2   
    53    18    57 1   
    54    18    58 1   
    55    19    59 1   
    56    19    60 1   
    57    20    21 2   
    58    20    27 1   
    59    20    61 1   
    60    21    22 1   
    61    21    62 1   
    62    22    28 1   
    63    22    37 2   
    64    23    27 1   
    65    23    28 1   
    66    23    38 2   
    67    24    63 1   
    68    24    64 1   
    69    25    65 1   
    70    26    66 1   
    71    28    67 1   
    72    35    68 1   
    73    36    69 1   
    74    39    70 1   
@<TRIPOS>SUBSTRUCTURE
     1 NKM         1 TEMP              0 ****  ****    0 ROOT
