@<TRIPOS>MOLECULE
NKM
   71    74     1     0     0
SMALL
bcc


@<TRIPOS>ATOM
      1 C13         -0.4250     1.9120    -0.0120 c6         1 NKM       0.359900
      2 C15         -0.9120     3.8650     1.4390 c6         1 NKM       0.151300
      3 C17         -2.4790     1.9720     1.1630 ce         1 NKM       0.048900
      4 C22         -5.0020    -0.8300     1.0850 c3         1 NKM       0.041700
      5 C24         -5.7040    -0.3980    -1.3720 c3         1 NKM      -0.072400
      6 C26         -3.8460    -2.1560    -1.3570 c3         1 NKM       0.114000
      7 C28         -4.5880    -2.2990     1.0600 c          1 NKM       0.693500
      8 C01         -0.1540    -4.0000     0.4710 c3         1 NKM       0.125700
      9 C03          0.7180    -1.8650    -0.0740 c5         1 NKM       0.125100
     10 C04          1.9110    -1.4820     0.8060 c5         1 NKM       0.085100
     11 C05          3.0310    -1.3530    -0.2350 c5         1 NKM       0.280500
     12 C07          1.0230    -1.1110    -1.3780 c5         1 NKM       0.147100
     13 C08          0.2770     0.2120    -1.5110 c3         1 NKM       0.050100
     14 C09          0.7780     1.0010    -2.7310 c          1 NKM       0.654100
     15 C14          0.1380     2.8080     1.0850 c6         1 NKM       0.137100
     16 C16         -2.2440     3.1990     1.6200 c2         1 NKM      -0.258200
     17 C19         -3.7890     1.2760     1.3730 c          1 NKM       0.684300
     18 C23         -6.1220    -0.5060     0.0870 c3         1 NKM      -0.089400
     19 C25         -5.1490    -1.6780    -1.9810 c3         1 NKM      -0.100400
     20 C33          3.8150     0.9040     0.2550 cc         1 NKM       0.057600
     21 C34          4.7310     1.8130     0.6220 cd         1 NKM      -0.336200
     22 C35          6.0770     1.3920     0.9200 c          1 NKM       0.731700
     23 C38          5.3560    -0.9250     0.4070 c          1 NKM       0.830500
     24 N11          0.4620     0.4470    -3.9080 nt         1 NKM      -0.677000
     25 N21         -3.8300     0.0110     0.9310 ns         1 NKM      -0.557900
     26 N27         -3.9830    -2.7740    -0.0450 ns         1 NKM      -0.580900
     27 N32          4.0900    -0.4340     0.1520 n          1 NKM      -0.388000
     28 N37          6.2710     0.0260     0.7750 ns         1 NKM      -0.605500
     29 O02          0.6940    -3.2370    -0.3590 os         1 NKM      -0.399600
     30 O06          2.4230    -0.8700    -1.4010 os         1 NKM      -0.391600
     31 O10          1.4080     2.0330    -2.6060 o          1 NKM      -0.554100
     32 O12          0.4920     0.9440    -0.3360 os         1 NKM      -0.375600
     33 O18         -1.5710     1.2290     0.4940 os         1 NKM      -0.398900
     34 O20         -4.7270     1.8390     1.9160 o          1 NKM      -0.586100
     35 O30         -0.9360     4.8270     0.4080 oh         1 NKM      -0.573800
     36 O31          1.3390     3.3570     0.6330 oh         1 NKM      -0.550800
     37 O36          6.9930     2.1130     1.2660 o          1 NKM      -0.605500
     38 O39          5.6480    -2.0990     0.3230 o          1 NKM      -0.629500
     39 O40          2.1840    -2.4350     1.7850 oh         1 NKM      -0.565800
     40 H131        -0.7360     2.5020    -0.8860 h2         1 NKM       0.086700
     41 H151        -0.6230     4.3270     2.3930 h1         1 NKM       0.049700
     42 H221        -5.4010    -0.6680     2.0870 h1         1 NKM       0.098700
     43 H242        -6.5780    -0.0850    -1.9480 hc         1 NKM       0.047200
     44 H241        -4.9690     0.4040    -1.4880 hc         1 NKM       0.047200
     45 H261        -3.4020    -2.9210    -1.9900 h1         1 NKM       0.040200
     46 H262        -3.1220    -1.3340    -1.3370 h1         1 NKM       0.040200
     47 H013         0.1590    -3.9980     1.5170 h1         1 NKM       0.037700
     48 H012        -1.1890    -3.6410     0.4230 h1         1 NKM       0.037700
     49 H011        -0.1320    -5.0240     0.1030 h1         1 NKM       0.037700
     50 H031        -0.2320    -1.5410     0.3720 h1         1 NKM       0.068700
     51 H041         1.7080    -0.5000     1.2460 h1         1 NKM       0.060700
     52 H051         3.4960    -2.3260    -0.4030 h2         1 NKM       0.122700
     53 H071         0.7530    -1.7460    -2.2270 h1         1 NKM       0.086700
     54 H081        -0.7870    -0.0210    -1.6550 h1         1 NKM       0.056700
     55 H141         0.2880     2.1830     1.9780 h1         1 NKM       0.049700
     56 H2          -3.0350     3.7290     2.1330 ha         1 NKM       0.169000
     57 H232        -6.9040    -1.2640     0.2020 hc         1 NKM       0.064200
     58 H231        -6.5690     0.4390     0.3960 hc         1 NKM       0.064200
     59 H251        -5.8870    -2.4830    -1.9210 hc         1 NKM       0.052200
     60 H252        -4.9570    -1.5080    -3.0430 hc         1 NKM       0.052200
     61 H331         2.8070     1.2070     0.0130 h4         1 NKM       0.193000
     62 H341         4.4690     2.8580     0.6900 ha         1 NKM       0.174000
     63 H112        -0.1130    -0.3750    -3.9860 hn         1 NKM       0.315500
     64 H111         0.7420     0.8890    -4.7690 hn         1 NKM       0.315500
     65 H211        -2.9860    -0.3790     0.5470 hn         1 NKM       0.333500
     66 H271        -3.7640    -3.7590    -0.0030 hn         1 NKM       0.313500
     67 H371         7.2000    -0.3260     0.9710 hn         1 NKM       0.340500
     68 H301        -1.5950     5.4930     0.6310 ho         1 NKM       0.412000
     69 H311         1.7520     3.8190     1.3690 ho         1 NKM       0.412000
     70 H401         2.6600    -2.0090     2.5050 ho         1 NKM       0.417000
     71 O29         -4.8040    -3.0100     2.0300 o          1 NKM      -0.621500
@<TRIPOS>BOND
     1     1    15 1   
     2     1    32 1   
     3     1    33 1   
     4     1    40 1   
     5     2    15 1   
     6     2    16 1   
     7     2    35 1   
     8     2    41 1   
     9     3    16 2   
    10     3    17 1   
    11     3    33 1   
    12     4     7 1   
    13     4    18 1   
    14     4    25 1   
    15     4    42 1   
    16     5    18 1   
    17     5    19 1   
    18     5    43 1   
    19     5    44 1   
    20     6    19 1   
    21     6    26 1   
    22     6    45 1   
    23     6    46 1   
    24     7    26 1   
    25     7    71 2   
    26     8    29 1   
    27     8    47 1   
    28     8    48 1   
    29     8    49 1   
    30     9    10 1   
    31     9    12 1   
    32     9    29 1   
    33     9    50 1   
    34    10    11 1   
    35    10    39 1   
    36    10    51 1   
    37    11    27 1   
    38    11    30 1   
    39    11    52 1   
    40    12    13 1   
    41    12    30 1   
    42    12    53 1   
    43    13    14 1   
    44    13    32 1   
    45    13    54 1   
    46    14    24 1   
    47    14    31 2   
    48    15    36 1   
    49    15    55 1   
    50    16    56 1   
    51    17    25 1   
    52    17    34 2   
    53    18    57 1   
    54    18    58 1   
    55    19    59 1   
    56    19    60 1   
    57    20    21 2   
    58    20    27 1   
    59    20    61 1   
    60    21    22 1   
    61    21    62 1   
    62    22    28 1   
    63    22    37 2   
    64    23    27 1   
    65    23    28 1   
    66    23    38 2   
    67    24    63 1   
    68    24    64 1   
    69    25    65 1   
    70    26    66 1   
    71    28    67 1   
    72    35    68 1   
    73    36    69 1   
    74    39    70 1   
@<TRIPOS>SUBSTRUCTURE
     1 NKM         1 TEMP              0 ****  ****    0 ROOT
