@<TRIPOS>MOLECULE
NKS
   61    64     1     0     0
SMALL
bcc


@<TRIPOS>ATOM
      1 C1          11.3590     1.2440    -1.1280 c3         1 NKS      -0.036800
      2 C2           9.9770     0.7830    -0.7650 ca         1 NKS      -0.100300
      3 C3           9.1210     1.6000    -0.0260 ca         1 NKS      -0.130000
      4 C4           7.8520     1.1740     0.3350 ca         1 NKS      -0.123000
      5 C5           7.4260    -0.0880    -0.0480 ca         1 NKS       0.144100
      6 C6           8.2500    -0.9190    -0.7840 ca         1 NKS      -0.123000
      7 C7           9.5200    -0.4790    -1.1350 ca         1 NKS      -0.130000
      8 O8           6.1900    -0.5370     0.3590 os         1 NKS      -0.345200
      9 C9           5.1200    -0.1560    -0.3750 c          1 NKS       0.777100
     10 O10          5.2340     0.3370    -1.4770 o          1 NKS      -0.616000
     11 N11          3.9700    -0.4620     0.2550 n          1 NKS      -0.420800
     12 C12          2.7190    -0.0420    -0.3370 c3         1 NKS       0.141300
     13 C13          1.6870    -1.1410    -0.3370 ca         1 NKS      -0.038300
     14 C14          2.0360    -2.4560    -0.6450 ca         1 NKS      -0.140000
     15 C15          1.0580    -3.4340    -0.6750 ca         1 NKS      -0.104000
     16 C16         -0.2750    -3.1340    -0.4060 ca         1 NKS      -0.231000
     17 C17         -0.6240    -1.8220    -0.1010 ca         1 NKS       0.130100
     18 C18          0.3640    -0.8350    -0.0620 ca         1 NKS      -0.154000
     19 O19         -1.8770    -1.4110     0.1840 os         1 NKS      -0.313900
     20 C20         -2.9270    -2.3650     0.1480 c3         1 NKS       0.127100
     21 C21         -4.1920    -1.6520     0.4430 cc         1 NKS       0.236300
     22 C22         -4.9520    -1.6980     1.5630 cd         1 NKS       0.183700
     23 O23         -6.0030    -0.8670     1.3550 os         1 NKS      -0.350800
     24 C24         -5.8320    -0.3510     0.1280 cd         1 NKS       0.533900
     25 N25         -4.7710    -0.7860    -0.4600 nc         1 NKS      -0.645000
     26 C26         -6.8140     0.5940    -0.3800 ca         1 NKS      -0.121500
     27 C27         -6.6710     1.0940    -1.6740 ca         1 NKS      -0.085000
     28 C28         -7.5830     1.9980    -2.1870 ca         1 NKS      -0.130500
     29 C29         -8.6500     2.4050    -1.3980 ca         1 NKS       0.038400
     30 C30         -8.8120     1.9200    -0.1090 ca         1 NKS      -0.130500
     31 C31         -7.8930     1.0150     0.3960 ca         1 NKS      -0.085000
     32 CL32        -9.7940     3.5360    -2.0310 cl         1 NKS      -0.113400
     33 C33         -4.8640    -2.4180     2.8490 c3         1 NKS      -0.120400
     34 C34          3.9590    -0.6630     1.6910 c3         1 NKS      -0.060000
     35 C35          4.3620     0.5960     2.4930 c          1 NKS       0.917600
     36 O36          4.3980     0.4380     3.7280 o          1 NKS      -0.832300
     37 O37          4.5960     1.6340     1.8490 o          1 NKS      -0.832300
     38 H1          12.0420     1.1400    -0.2820 hc         1 NKS       0.031033
     39 H1A         11.7700     0.6600    -1.9510 hc         1 NKS       0.031033
     40 H1B         11.3680     2.2930    -1.4210 hc         1 NKS       0.031033
     41 H3           9.4490     2.5880     0.2750 ha         1 NKS       0.118000
     42 H4           7.1950     1.8090     0.9160 ha         1 NKS       0.160000
     43 H6           7.9100    -1.9030    -1.0810 ha         1 NKS       0.160000
     44 H7          10.1610    -1.1310    -1.7150 ha         1 NKS       0.118000
     45 H12          2.3340     0.8330     0.1980 h1         1 NKS       0.071200
     46 H12A         2.9020     0.2760    -1.3630 h1         1 NKS       0.071200
     47 H14          3.0670    -2.7120    -0.8520 ha         1 NKS       0.147000
     48 H15          1.3270    -4.4560    -0.9090 ha         1 NKS       0.118000
     49 H16         -1.0080    -3.9280    -0.4330 ha         1 NKS       0.119000
     50 H18          0.0820     0.1810     0.1910 ha         1 NKS       0.149000
     51 H20         -2.9830    -2.8360    -0.8390 h1         1 NKS       0.043200
     52 H20A        -2.7600    -3.1570     0.8840 h1         1 NKS       0.043200
     53 H27         -5.8400     0.7720    -2.2880 ha         1 NKS       0.155500
     54 H28         -7.4630     2.3790    -3.1920 ha         1 NKS       0.149000
     55 H30         -9.6430     2.2450     0.5010 ha         1 NKS       0.149000
     56 H31         -8.0320     0.6470     1.4040 ha         1 NKS       0.155500
     57 H33         -4.8130    -1.7270     3.6910 hc         1 NKS       0.060033
     58 H33A        -5.7260    -3.0700     3.0020 hc         1 NKS       0.060033
     59 H33B        -3.9690    -3.0370     2.8680 hc         1 NKS       0.060033
     60 H34          2.9440    -0.9520     1.9720 h1         1 NKS       0.043200
     61 H34A         4.5900    -1.5060     1.9770 h1         1 NKS       0.043200
@<TRIPOS>BOND
     1     1     2 1   
     2     1    38 1   
     3     1    39 1   
     4     1    40 1   
     5     2     3 ar  
     6     2     7 ar  
     7     3     4 ar  
     8     3    41 1   
     9     4     5 ar  
    10     4    42 1   
    11     5     6 ar  
    12     5     8 1   
    13     6     7 ar  
    14     6    43 1   
    15     7    44 1   
    16     8     9 1   
    17     9    10 2   
    18     9    11 1   
    19    11    12 1   
    20    11    34 1   
    21    12    13 1   
    22    12    45 1   
    23    12    46 1   
    24    13    14 ar  
    25    13    18 ar  
    26    14    15 ar  
    27    14    47 1   
    28    15    16 ar  
    29    15    48 1   
    30    16    17 ar  
    31    16    49 1   
    32    17    18 ar  
    33    17    19 1   
    34    18    50 1   
    35    19    20 1   
    36    20    21 1   
    37    20    51 1   
    38    20    52 1   
    39    21    22 2   
    40    21    25 1   
    41    22    23 1   
    42    22    33 1   
    43    23    24 1   
    44    24    25 2   
    45    24    26 1   
    46    26    27 ar  
    47    26    31 ar  
    48    27    28 ar  
    49    27    53 1   
    50    28    29 ar  
    51    28    54 1   
    52    29    30 ar  
    53    29    32 1   
    54    30    31 ar  
    55    30    55 1   
    56    31    56 1   
    57    33    57 1   
    58    33    58 1   
    59    33    59 1   
    60    34    35 1   
    61    34    60 1   
    62    34    61 1   
    63    35    36 1   
    64    35    37 1   
@<TRIPOS>SUBSTRUCTURE
     1 NKS         1 TEMP              0 ****  ****    0 ROOT
