@<TRIPOS>MOLECULE
NKS
   61    64     1     0     0
SMALL
No Charge or Current Charge


@<TRIPOS>ATOM
      1 C1          10.7640    -2.2830     1.0470 c3         1 NKS      -0.036800
      2 C2           9.4370    -1.5510     0.9140 ca         1 NKS      -0.100300
      3 C3           9.2290    -0.3320     1.5880 ca         1 NKS      -0.112000
      4 C4           8.0000     0.3410     1.4680 ca         1 NKS      -0.105000
      5 C5           6.9770    -0.1930     0.6680 ca         1 NKS       0.144100
      6 C6           7.1740    -1.4210     0.0080 ca         1 NKS      -0.105000
      7 C7           8.4030    -2.0950     0.1290 ca         1 NKS      -0.112000
      8 O8           5.7790     0.4770     0.5920 os         1 NKS      -0.345200
      9 C9           5.0860     0.6960    -0.5690 c          1 NKS       0.661100
     10 O10          5.5140     0.4340    -1.6860 o          1 NKS      -0.567000
     11 N11          3.8370     1.3130    -0.3400 n          1 NKS      -0.353800
     12 C12          2.9470     1.6430    -1.4740 c3         1 NKS       0.141300
     13 C13          1.9680     0.5250    -1.8110 ca         1 NKS      -0.038300
     14 C14          2.3230    -0.4780    -2.7330 ca         1 NKS      -0.122000
     15 C15          1.4230    -1.5120    -3.0390 ca         1 NKS      -0.086000
     16 C16          0.1600    -1.5530    -2.4240 ca         1 NKS      -0.213000
     17 C17         -0.2040    -0.5520    -1.4970 ca         1 NKS       0.130100
     18 C18          0.7010     0.4790    -1.1970 ca         1 NKS      -0.136000
     19 O19         -1.4270    -0.5410    -0.8600 os         1 NKS      -0.337100
     20 C20         -2.4170    -1.5640    -1.0800 c3         1 NKS       0.150300
     21 C21         -3.6170    -1.2770    -0.2080 cc         1 NKS       0.236300
     22 C22         -3.6810    -1.2060     1.1570 cd         1 NKS       0.139300
     23 O23         -4.9470    -0.9270     1.5610 os         1 NKS      -0.262000
     24 C24         -5.6050    -0.8430     0.3640 cd         1 NKS       0.489500
     25 N25         -4.8650    -1.0450    -0.7200 nc         1 NKS      -0.645000
     26 C26         -7.0540    -0.5460     0.3760 ca         1 NKS      -0.121500
     27 C27         -7.7760    -0.4530    -0.8350 ca         1 NKS      -0.067000
     28 C28         -9.1540    -0.1710    -0.8270 ca         1 NKS      -0.112500
     29 C29         -9.8240     0.0210     0.3900 ca         1 NKS       0.130000
     30 C30         -9.1210    -0.0690     1.6000 ca         1 NKS      -0.112500
     31 C31         -7.7430    -0.3510     1.5960 ca         1 NKS      -0.067000
     32 Cl32       -11.5470     0.3740     0.3980 cl         1 NKS      -0.205000
     33 C33         -2.6080    -1.3820     2.1990 c3         1 NKS      -0.120400
     34 C34          3.3720     1.6780     1.0340 c3         1 NKS      -0.060000
     35 C35          4.1150     2.8710     1.6890 c          1 NKS       0.707000
     36 O36          4.4960     2.7520     2.8450 o          1 NKS      -0.727000
     37 O37          4.2810     3.8880     1.0290 o          1 NKS      -0.727000
     38 H1          10.7430    -2.9780     1.8950 hc         1 NKS       0.031033
     39 H1A         10.9940    -2.8610     0.1440 hc         1 NKS       0.031033
     40 H1B         11.5930    -1.5820     1.2080 hc         1 NKS       0.031033
     41 H3          10.0160     0.0930     2.2060 ha         1 NKS       0.100000
     42 H4           7.8390     1.2800     1.9930 ha         1 NKS       0.142000
     43 H6           6.3780    -1.8570    -0.5900 ha         1 NKS       0.142000
     44 H7           8.5480    -3.0420    -0.3860 ha         1 NKS       0.100000
     45 H12          2.3840     2.5540    -1.2320 h1         1 NKS       0.071200
     46 H12A         3.5500     1.8780    -2.3600 h1         1 NKS       0.071200
     47 H14          3.2990    -0.4570    -3.2130 ha         1 NKS       0.129000
     48 H15          1.7050    -2.2830    -3.7520 ha         1 NKS       0.100000
     49 H16         -0.5170    -2.3630    -2.6780 ha         1 NKS       0.101000
     50 H18          0.4150     1.2450    -0.4820 ha         1 NKS       0.131000
     51 H20         -2.7260    -1.5830    -2.1330 h1         1 NKS       0.043200
     52 H20A        -2.0180    -2.5520    -0.8170 h1         1 NKS       0.043200
     53 H27         -7.2720    -0.5990    -1.7890 ha         1 NKS       0.137500
     54 H28         -9.7010    -0.1010    -1.7640 ha         1 NKS       0.131000
     55 H30         -9.6430     0.0800     2.5420 ha         1 NKS       0.131000
     56 H31         -7.2170    -0.4160     2.5470 ha         1 NKS       0.137500
     57 H33         -3.0340    -1.4080     3.2090 hc         1 NKS       0.060033
     58 H33A        -2.0590    -2.3170     2.0400 hc         1 NKS       0.060033
     59 H33B        -1.8870    -0.5570     2.1580 hc         1 NKS       0.060033
     60 H34          2.3070     1.9350     1.0040 h1         1 NKS       0.043200
     61 H34A         3.4740     0.8020     1.6880 h1         1 NKS       0.043200
@<TRIPOS>BOND
     1     1     2 1   
     2     1    38 1   
     3     1    39 1   
     4     1    40 1   
     5     2     3 ar  
     6     2     7 ar  
     7     3     4 ar  
     8     3    41 1   
     9     4     5 ar  
    10     4    42 1   
    11     5     6 ar  
    12     5     8 1   
    13     6     7 ar  
    14     6    43 1   
    15     7    44 1   
    16     8     9 1   
    17     9    10 2   
    18     9    11 1   
    19    11    12 1   
    20    11    34 1   
    21    12    13 1   
    22    12    45 1   
    23    12    46 1   
    24    13    14 ar  
    25    13    18 ar  
    26    14    15 ar  
    27    14    47 1   
    28    15    16 ar  
    29    15    48 1   
    30    16    17 ar  
    31    16    49 1   
    32    17    18 ar  
    33    17    19 1   
    34    18    50 1   
    35    19    20 1   
    36    20    21 1   
    37    20    51 1   
    38    20    52 1   
    39    21    22 2   
    40    21    25 1   
    41    22    23 1   
    42    22    33 1   
    43    23    24 1   
    44    24    25 2   
    45    24    26 1   
    46    26    27 ar  
    47    26    31 ar  
    48    27    28 ar  
    49    27    53 1   
    50    28    29 ar  
    51    28    54 1   
    52    29    30 ar  
    53    29    32 1   
    54    30    31 ar  
    55    30    55 1   
    56    31    56 1   
    57    33    57 1   
    58    33    58 1   
    59    33    59 1   
    60    34    35 1   
    61    34    60 1   
    62    34    61 1   
    63    35    36 1   
    64    35    37 1   
@<TRIPOS>SUBSTRUCTURE
     1 NKS         1 TEMP              0 ****  ****    0 ROOT
