@<TRIPOS>MOLECULE
NKT
   14    15     1     0     0
SMALL
No Charge or Current Charge


@<TRIPOS>ATOM
      1 C1          69.1950    19.1250    24.4730 ca         1 NKT       0.034100
      2 C2          69.3550    19.5870    23.1430 ca         1 NKT      -0.121000
      3 C3          68.6480    18.9770    22.0820 ca         1 NKT      -0.011000
      4 C4          68.3230    18.0450    24.7490 ca         1 NKT      -0.016900
      5 C6          67.6430    17.4720    23.6640 ca         1 NKT      -0.063200
      6 Br1         68.0620    17.3710    26.5280 br         1 NKT      -0.046100
      7 N5          66.7530    16.4380    23.6150 na         1 NKT      -0.058400
      8 N9          66.3650    16.2570    22.2910 nc         1 NKT      -0.146400
      9 N8          66.9990    17.1570    21.5370 nd         1 NKT      -0.215400
     10 C7          67.7920    17.9100    22.3890 ca         1 NKT       0.020400
     11 Br2         70.1770    19.9860    25.8770 br         1 NKT      -0.050100
     12 H1          70.0260    20.4170    22.9360 ha         1 NKT       0.138000
     13 H2          68.7630    19.3230    21.0580 ha         1 NKT       0.143000
     14 H3          66.3990    15.8660    24.3760 hn         1 NKT       0.392000
@<TRIPOS>BOND
     1     1     2 ar  
     2     1     4 ar  
     3     1    11 1   
     4     2     3 ar  
     5     2    12 1   
     6     3    10 ar  
     7     3    13 1   
     8     4     5 ar  
     9     4     6 1   
    10     5     7 1   
    11     5    10 ar  
    12     7     8 1   
    13     7    14 1   
    14     8     9 2   
    15     9    10 1   
@<TRIPOS>SUBSTRUCTURE
     1 NKT         1 TEMP              0 ****  ****    0 ROOT
