@<TRIPOS>MOLECULE
NKT
   14    15     1     0     0
SMALL
abcg2


@<TRIPOS>ATOM
      1 C1          69.1760    19.1030    24.4650 ca         1 NKT       0.034100
      2 C2          69.3310    19.5600    23.1360 ca         1 NKT      -0.121000
      3 C3          68.6530    18.9800    22.0930 ca         1 NKT      -0.011000
      4 C4          68.3350    18.0540    24.7750 ca         1 NKT      -0.016900
      5 C6          67.6510    17.4740    23.7060 ca         1 NKT      -0.063200
      6 BR1         68.0720    17.3890    26.4980 br         1 NKT      -0.046100
      7 N5          66.7670    16.4620    23.5950 na         1 NKT      -0.058400
      8 N9          66.4020    16.2940    22.3300 nc         1 NKT      -0.146400
      9 N8          67.0010    17.1460    21.5960 nd         1 NKT      -0.215400
     10 C7          67.7990    17.9170    22.3910 ca         1 NKT       0.020400
     11 BR2         70.1510    19.9700    25.8080 br         1 NKT      -0.050100
     12 H1          69.9990    20.3860    22.9400 ha         1 NKT       0.138000
     13 H2          68.7790    19.3370    21.0810 ha         1 NKT       0.143000
     14 H3          66.3820    15.8590    24.3030 hn         1 NKT       0.392000
@<TRIPOS>BOND
     1     1     2 ar  
     2     1     4 ar  
     3     1    11 1   
     4     2     3 ar  
     5     2    12 1   
     6     3    10 ar  
     7     3    13 1   
     8     4     5 ar  
     9     4     6 1   
    10     5     7 1   
    11     5    10 ar  
    12     7     8 1   
    13     7    14 1   
    14     8     9 2   
    15     9    10 1   
@<TRIPOS>SUBSTRUCTURE
     1 NKT         1 TEMP              0 ****  ****    0 ROOT
