@<TRIPOS>MOLECULE
NKU
   37    39     1     0     0
SMALL
No Charge or Current Charge


@<TRIPOS>ATOM
      1 N1           7.7940    -0.6340    19.6850 na         1 NKU       0.061600
      2 N3           7.3090    -0.4950    17.5590 nc         1 NKU      -0.212400
      3 C4          14.4960    -0.9530    21.3810 ca         1 NKU      -0.100000
      4 C5          15.0840    -1.8680    22.2710 ca         1 NKU      -0.098000
      5 C6          14.4460    -2.1720    23.4850 ca         1 NKU       0.124000
      6 C7          13.2220    -1.5640    23.8110 ca         1 NKU      -0.099000
      7 C8           9.5710    -0.3360    21.4610 c          1 NKU       0.577100
      8 C10          6.6300     0.4910    18.2720 ca         1 NKU       0.014400
      9 C13          5.5020     2.2710    20.1110 ca         1 NKU      -0.074000
     10 C15          6.9260     0.4090    19.5970 ca         1 NKU      -0.053200
     11 O           10.0240     0.6190    20.8390 o          1 NKU      -0.573100
     12 C9           8.3760    -1.1520    20.9340 c3         1 NKU       0.011600
     13 C14          6.3920     1.2740    20.5620 ca         1 NKU      -0.111000
     14 C12          5.1820     2.3700    18.7350 ca         1 NKU      -0.139000
     15 C11          5.7480     1.4740    17.7990 ca         1 NKU      -0.027000
     16 N2           8.0260    -1.1940    18.4450 nd         1 NKU      -0.160400
     17 N           10.1350    -0.7170    22.7040 n          1 NKU      -0.412800
     18 C            9.6430    -1.8970    23.4520 c3         1 NKU       0.087300
     19 C1          11.2960     0.0090    23.2690 c3         1 NKU       0.141300
     20 C2          12.6270    -0.6450    22.9230 ca         1 NKU      -0.104300
     21 C3          13.2710    -0.3440    21.7060 ca         1 NKU      -0.093000
     22 H1          14.9880    -0.7160    20.4400 ha         1 NKU       0.123000
     23 H2          16.0310    -2.3410    22.0230 ha         1 NKU       0.132000
     24 H3          12.7380    -1.8090    24.7530 ha         1 NKU       0.127000
     25 H4           5.0620     2.9670    20.8230 ha         1 NKU       0.116000
     26 H5           7.5990    -1.1650    21.7050 h1         1 NKU       0.085700
     27 H6           8.7150    -2.1810    20.7700 h1         1 NKU       0.085700
     28 H7           6.6510     1.1860    21.6150 ha         1 NKU       0.122000
     29 H8           4.4950     3.1420    18.3940 ha         1 NKU       0.118000
     30 H9           5.5080     1.5440    16.7410 ha         1 NKU       0.134000
     31 H10         10.2300    -2.0430    24.3680 h1         1 NKU       0.044700
     32 H11          8.5920    -1.7530    23.7320 h1         1 NKU       0.044700
     33 H12          9.7370    -2.7990    22.8330 h1         1 NKU       0.044700
     34 H13         11.2990     1.0490    22.9170 h1         1 NKU       0.074700
     35 H14         11.1880     0.0570    24.3610 h1         1 NKU       0.074700
     36 H15         12.8210     0.3610    21.0100 ha         1 NKU       0.127000
     37 Cl          15.1800    -3.3170    24.5990 cl         1 NKU      -0.212000
@<TRIPOS>BOND
     1     1    10 1   
     2     1    12 1   
     3     1    16 1   
     4     2     8 1   
     5     2    16 2   
     6     3     4 ar  
     7     3    21 ar  
     8     3    22 1   
     9     4     5 ar  
    10     4    23 1   
    11     5     6 ar  
    12     5    37 1   
    13     6    20 ar  
    14     6    24 1   
    15     7    11 2   
    16     7    12 1   
    17     7    17 1   
    18     8    10 ar  
    19     8    15 ar  
    20     9    13 ar  
    21     9    14 ar  
    22     9    25 1   
    23    10    13 ar  
    24    12    26 1   
    25    12    27 1   
    26    13    28 1   
    27    14    15 ar  
    28    14    29 1   
    29    15    30 1   
    30    17    18 1   
    31    17    19 1   
    32    18    31 1   
    33    18    32 1   
    34    18    33 1   
    35    19    20 1   
    36    19    34 1   
    37    19    35 1   
    38    20    21 ar  
    39    21    36 1   
@<TRIPOS>SUBSTRUCTURE
     1 NKU         1 TEMP              0 ****  ****    0 ROOT
