@<TRIPOS>MOLECULE
NKU
   37    39     1     0     0
SMALL
abcg2


@<TRIPOS>ATOM
      1 N1           7.8300    -0.4750    19.7790 na         1 NKU       0.061600
      2 N3           7.7350    -0.0310    17.6680 nc         1 NKU      -0.212400
      3 C4          14.0710    -1.7060    21.3260 ca         1 NKU      -0.100000
      4 C5          15.0490    -1.8470    22.3050 ca         1 NKU      -0.098000
      5 C6          14.7480    -1.4530    23.6000 ca         1 NKU       0.124000
      6 C7          13.5050    -0.9310    23.9340 ca         1 NKU      -0.099000
      7 C8           9.4640    -0.2950    21.6040 c          1 NKU       0.577100
      8 C10          6.8640     0.8160    18.3140 ca         1 NKU       0.014400
      9 C13          5.3300     2.2170    20.1300 ca         1 NKU      -0.074000
     10 C15          6.9260     0.5380    19.6890 ca         1 NKU      -0.053200
     11 O            9.7550     0.8130    21.1610 o          1 NKU      -0.573100
     12 C9           8.3510    -1.1260    20.9510 c3         1 NKU       0.011600
     13 C14          6.1620     1.2350    20.6290 ca         1 NKU      -0.111000
     14 C12          5.2540     2.5050    18.7460 ca         1 NKU      -0.139000
     15 C11          6.0130     1.8150    17.8230 ca         1 NKU      -0.027000
     16 N2           8.3030    -0.7850    18.5520 nd         1 NKU      -0.160400
     17 N           10.0720    -0.8620    22.6660 n          1 NKU      -0.412800
     18 C            9.7890    -2.2200    23.1260 c3         1 NKU       0.087300
     19 C1          11.1940    -0.1800    23.3020 c3         1 NKU       0.141300
     20 C2          12.5340    -0.7870    22.9470 ca         1 NKU      -0.104300
     21 C3          12.8240    -1.1810    21.6410 ca         1 NKU      -0.093000
     22 H1          14.2880    -2.0110    20.3100 ha         1 NKU       0.123000
     23 H2          16.0210    -2.2570    22.0680 ha         1 NKU       0.132000
     24 H3          13.2940    -0.6430    24.9550 ha         1 NKU       0.127000
     25 H4           4.7170     2.7890    20.8140 ha         1 NKU       0.116000
     26 H5           7.5360    -1.2870    21.6570 h1         1 NKU       0.085700
     27 H6           8.7310    -2.1000    20.6480 h1         1 NKU       0.085700
     28 H7           6.2200     1.0210    21.6880 ha         1 NKU       0.122000
     29 H8           4.5850     3.2870    18.4120 ha         1 NKU       0.118000
     30 H9           5.9600     2.0320    16.7640 ha         1 NKU       0.134000
     31 H10         10.1060    -2.3000    24.1640 h1         1 NKU       0.044700
     32 H11          8.7250    -2.4370    23.0840 h1         1 NKU       0.044700
     33 H12         10.3320    -2.9640    22.5380 h1         1 NKU       0.044700
     34 H13         11.1630     0.8620    22.9870 h1         1 NKU       0.074700
     35 H14         11.0500    -0.2120    24.3820 h1         1 NKU       0.074700
     36 H15         12.0730    -1.0820    20.8670 ha         1 NKU       0.127000
     37 CL          15.9600    -1.6300    24.8540 cl         1 NKU      -0.212000
@<TRIPOS>BOND
     1     1    10 1   
     2     1    12 1   
     3     1    16 1   
     4     2     8 1   
     5     2    16 2   
     6     3     4 ar  
     7     3    21 ar  
     8     3    22 1   
     9     4     5 ar  
    10     4    23 1   
    11     5     6 ar  
    12     5    37 1   
    13     6    20 ar  
    14     6    24 1   
    15     7    11 2   
    16     7    12 1   
    17     7    17 1   
    18     8    10 ar  
    19     8    15 ar  
    20     9    13 ar  
    21     9    14 ar  
    22     9    25 1   
    23    10    13 ar  
    24    12    26 1   
    25    12    27 1   
    26    13    28 1   
    27    14    15 ar  
    28    14    29 1   
    29    15    30 1   
    30    17    18 1   
    31    17    19 1   
    32    18    31 1   
    33    18    32 1   
    34    18    33 1   
    35    19    20 1   
    36    19    34 1   
    37    19    35 1   
    38    20    21 ar  
    39    21    36 1   
@<TRIPOS>SUBSTRUCTURE
     1 NKU         1 TEMP              0 ****  ****    0 ROOT
