@<TRIPOS>MOLECULE
NKV
   43    45     1     0     0
SMALL
No Charge or Current Charge


@<TRIPOS>ATOM
      1 C13         44.6680    41.7840   117.8350 c5         1 NKV       0.116300
      2 C20         50.5950    49.2910   116.2900 c          1 NKV       0.609100
      3 C22         50.8140    50.4810   117.2510 c3         1 NKV      -0.143700
      4 C24         52.2890    50.5680   117.7100 c3         1 NKV      -0.084600
      5 C02         49.2690    47.1160   116.2050 ca         1 NKV       0.321900
      6 C04         49.2600    45.5900   114.4840 ca         1 NKV       0.171900
      7 C06         47.9550    45.1190   116.3000 ca         1 NKV       0.136500
      8 C07         48.3630    46.2860   116.8960 ca         1 NKV      -0.088600
      9 C09         47.0120    45.3780   118.3010 cc         1 NKV       0.417700
     10 C11         46.4100    43.2530   117.0050 c5         1 NKV       0.316300
     11 C12         46.0080    42.4280   118.2900 c5         1 NKV       0.082300
     12 C14         44.0630    42.9600   117.0000 c5         1 NKV       0.165300
     13 C16         43.4340    44.1160   117.8360 c3         1 NKV       0.144600
     14 C23         50.3250    51.8080   116.6220 c3         1 NKV      -0.084600
     15 N01         49.7240    48.3290   116.7660 ns         1 NKV      -0.321900
     16 N03         49.7230    46.7620   114.9820 nb         1 NKV      -0.221000
     17 N05         48.3920    44.7410   115.0830 nb         1 NKV      -0.194000
     18 N08         47.7850    46.4700   118.1520 nd         1 NKV      -0.559100
     19 N10         47.0950    44.5350   117.1870 na         1 NKV      -0.285300
     20 O15         45.1940    43.4650   116.2460 os         1 NKV      -0.450000
     21 O17         42.3150    43.6490   118.6110 oh         1 NKV      -0.718000
     22 O18         44.9330    40.6080   117.0570 oh         1 NKV      -0.701000
     23 O19         46.9630    41.4110   118.6620 oh         1 NKV      -0.694000
     24 O21         51.1560    49.2260   115.2040 o          1 NKV      -0.515100
     25 H1          44.0330    41.5360   118.6980 h1         1 NKV       0.070700
     26 H2          50.2060    50.3060   118.1480 hc         1 NKV       0.058700
     27 H3          52.4220    51.3770   118.4390 hc         1 NKV       0.044700
     28 H4          52.6030    49.6290   118.1850 hc         1 NKV       0.044700
     29 H5          52.9550    50.7600   116.8600 hc         1 NKV       0.044700
     30 H6          49.6240    45.3010   113.4990 h5         1 NKV       0.056100
     31 H7          46.3920    45.1590   119.1610 h5         1 NKV       0.061800
     32 H8          47.0900    42.6410   116.3970 h2         1 NKV       0.126700
     33 H9          45.8170    43.0890   119.1450 h1         1 NKV       0.047700
     34 H10         43.2990    42.5950   116.3010 h1         1 NKV       0.109700
     35 H11         44.1920    44.5550   118.4960 h1         1 NKV       0.029200
     36 H12         43.1070    44.9020   117.1430 h1         1 NKV       0.029200
     37 H13         49.2680    51.7340   116.3380 hc         1 NKV       0.044700
     38 H14         50.4280    52.6360   117.3340 hc         1 NKV       0.044700
     39 H15         50.9050    52.0550   115.7250 hc         1 NKV       0.044700
     40 H16         49.3380    48.5190   117.6810 hn         1 NKV       0.173000
     41 H17         41.9180    44.4360   119.0550 ho         1 NKV       0.512000
     42 H18         45.7970    40.2890   117.4210 ho         1 NKV       0.520000
     43 H19         47.6820    41.8450   119.1820 ho         1 NKV       0.516000
@<TRIPOS>BOND
     1     1    11 1   
     2     1    12 1   
     3     1    22 1   
     4     1    25 1   
     5     2     3 1   
     6     2    15 1   
     7     2    24 2   
     8     3     4 1   
     9     3    14 1   
    10     3    26 1   
    11     4    27 1   
    12     4    28 1   
    13     4    29 1   
    14     5     8 ar  
    15     5    15 1   
    16     5    16 ar  
    17     6    16 ar  
    18     6    17 ar  
    19     6    30 1   
    20     7     8 ar  
    21     7    17 ar  
    22     7    19 1   
    23     8    18 1   
    24     9    18 2   
    25     9    19 1   
    26     9    31 1   
    27    10    11 1   
    28    10    19 1   
    29    10    20 1   
    30    10    32 1   
    31    11    23 1   
    32    11    33 1   
    33    12    13 1   
    34    12    20 1   
    35    12    34 1   
    36    13    21 1   
    37    13    35 1   
    38    13    36 1   
    39    14    37 1   
    40    14    38 1   
    41    14    39 1   
    42    15    40 1   
    43    21    41 1   
    44    22    42 1   
    45    23    43 1   
@<TRIPOS>SUBSTRUCTURE
     1 NKV         1 TEMP              0 ****  ****    0 ROOT
