@<TRIPOS>MOLECULE
NKV
   43    45     1     0     0
SMALL
bcc


@<TRIPOS>ATOM
      1 C13         44.7350    41.9900   117.7900 c5         1 NKV       0.093100
      2 C20         50.9490    49.1000   116.3930 c          1 NKV       0.676100
      3 C22         51.1180    50.3180   117.2840 c3         1 NKV      -0.143700
      4 C24         52.4350    51.0260   117.0090 c3         1 NKV      -0.084600
      5 C02         49.5760    47.0250   116.3460 ca         1 NKV       0.650200
      6 C04         49.6490    45.3170   114.8260 ca         1 NKV       0.697900
      7 C06         48.1110    45.1670   116.3880 ca         1 NKV       0.464800
      8 C07         48.5040    46.3690   116.9600 ca         1 NKV      -0.219200
      9 C09         46.8820    45.6850   118.1170 cc         1 NKV       0.417700
     10 C11         46.2750    43.5500   116.9180 c5         1 NKV       0.263800
     11 C12         46.0420    42.6940   118.1620 c5         1 NKV       0.059100
     12 C14         43.9930    43.1050   117.0630 c5         1 NKV       0.142100
     13 C16         43.1330    43.9720   117.9690 c3         1 NKV       0.121400
     14 C23         49.9260    51.2630   117.0850 c3         1 NKV      -0.084600
     15 N01         50.0210    48.2050   116.8840 ns         1 NKV      -0.555400
     16 N03         50.1320    46.4770   115.2760 nb         1 NKV      -0.747000
     17 N05         48.6540    44.6010   115.3200 nb         1 NKV      -0.720000
     18 N08         47.7190    46.6750   118.0400 nd         1 NKV      -0.559100
     19 N10         47.0700    44.7280   117.1550 na         1 NKV      -0.256000
     20 O15         45.0040    43.9240   116.4660 os         1 NKV      -0.403600
     21 O17         42.0560    43.1860   118.4150 oh         1 NKV      -0.595800
     22 O18         44.9720    40.9440   116.8830 oh         1 NKV      -0.578800
     23 O19         47.1360    41.8530   118.3700 oh         1 NKV      -0.571800
     24 O21         51.5410    48.9420   115.3520 o          1 NKV      -0.515100
     25 H1          44.1880    41.6450   118.6750 h1         1 NKV       0.070700
     26 H2          51.1110    49.9780   118.3250 hc         1 NKV       0.058700
     27 H3          52.5570    51.8540   117.7070 hc         1 NKV       0.044700
     28 H4          53.2890    50.3600   117.1330 hc         1 NKV       0.044700
     29 H5          52.4660    51.4340   115.9990 hc         1 NKV       0.044700
     30 H6          50.1390    44.9160   113.9470 h5         1 NKV       0.056100
     31 H7          46.1010    45.6010   118.8580 h5         1 NKV       0.061800
     32 H8          46.8140    42.9710   116.1600 h2         1 NKV       0.126700
     33 H9          45.8580    43.3360   119.0330 h1         1 NKV       0.047700
     34 H10         43.3640    42.6910   116.2690 h1         1 NKV       0.109700
     35 H11         43.7330    44.3540   118.8070 h1         1 NKV       0.029200
     36 H12         42.7960    44.8450   117.3960 h1         1 NKV       0.029200
     37 H13         48.9720    50.7880   117.3180 hc         1 NKV       0.044700
     38 H14         50.0290    52.1280   117.7400 hc         1 NKV       0.044700
     39 H15         49.8820    51.6230   116.0570 hc         1 NKV       0.044700
     40 H16         49.5730    48.4580   117.7540 hn         1 NKV       0.339500
     41 H17         41.5250    43.7130   119.0180 ho         1 NKV       0.413000
     42 H18         45.6760    40.3920   117.2430 ho         1 NKV       0.421000
     43 H19         47.1170    41.5360   119.2780 ho         1 NKV       0.417000
@<TRIPOS>BOND
     1     1    11 1   
     2     1    12 1   
     3     1    22 1   
     4     1    25 1   
     5     2     3 1   
     6     2    15 1   
     7     2    24 2   
     8     3     4 1   
     9     3    14 1   
    10     3    26 1   
    11     4    27 1   
    12     4    28 1   
    13     4    29 1   
    14     5     8 ar  
    15     5    15 1   
    16     5    16 ar  
    17     6    16 ar  
    18     6    17 ar  
    19     6    30 1   
    20     7     8 ar  
    21     7    17 ar  
    22     7    19 1   
    23     8    18 1   
    24     9    18 2   
    25     9    19 1   
    26     9    31 1   
    27    10    11 1   
    28    10    19 1   
    29    10    20 1   
    30    10    32 1   
    31    11    23 1   
    32    11    33 1   
    33    12    13 1   
    34    12    20 1   
    35    12    34 1   
    36    13    21 1   
    37    13    35 1   
    38    13    36 1   
    39    14    37 1   
    40    14    38 1   
    41    14    39 1   
    42    15    40 1   
    43    21    41 1   
    44    22    42 1   
    45    23    43 1   
@<TRIPOS>SUBSTRUCTURE
     1 NKV         1 TEMP              0 ****  ****    0 ROOT
