@<TRIPOS>MOLECULE
NKW
   14    15     1     0     0
SMALL
bcc


@<TRIPOS>ATOM
      1 C1          69.4170    19.2480    23.3380 ca         1 NKW       0.012100
      2 C2          69.2370    18.6660    24.6110 ca         1 NKW      -0.135000
      3 C3          68.2830    17.6960    24.8090 ca         1 NKW      -0.042000
      4 C4          68.6730    18.8960    22.2350 ca         1 NKW      -0.104000
      5 C6          67.7110    17.9100    22.4610 ca         1 NKW      -0.081200
      6 BR1         70.7470    20.5730    23.1500 br         1 NKW      -0.085100
      7 N5          66.8000    17.2940    21.6770 na         1 NKW      -0.017100
      8 N9          66.1020    16.4080    22.3730 nc         1 NKW      -0.152400
      9 N8          66.5040    16.4000    23.5850 nd         1 NKW      -0.218400
     10 C7          67.5090    17.3160    23.7080 ca         1 NKW       0.019400
     11 H1          69.8540    18.9830    25.4400 ha         1 NKW       0.154000
     12 H2          68.1410    17.2460    25.7820 ha         1 NKW       0.158000
     13 H3          68.8160    19.3460    21.2630 ha         1 NKW       0.158000
     14 H4          66.6060    17.4260    20.6960 hn         1 NKW       0.334700
@<TRIPOS>BOND
     1     1     2 ar  
     2     1     4 ar  
     3     1     6 1   
     4     2     3 ar  
     5     2    11 1   
     6     3    10 ar  
     7     3    12 1   
     8     4     5 ar  
     9     4    13 1   
    10     5     7 1   
    11     5    10 ar  
    12     7     8 1   
    13     7    14 1   
    14     8     9 2   
    15     9    10 1   
@<TRIPOS>SUBSTRUCTURE
     1 NKW         1 TEMP              0 ****  ****    0 ROOT
