@<TRIPOS>MOLECULE
NKW
   14    15     1     0     0
SMALL
No Charge or Current Charge


@<TRIPOS>ATOM
      1 C1          69.4500    19.2750    23.3490 ca         1 NKW       0.012100
      2 C2          69.2620    18.6860    24.6230 ca         1 NKW      -0.117000
      3 C3          68.2770    17.6890    24.8100 ca         1 NKW      -0.024000
      4 C4          68.6570    18.8750    22.2530 ca         1 NKW      -0.086000
      5 C6          67.6930    17.8840    22.4860 ca         1 NKW      -0.081200
      6 Br1         70.7860    20.6220    23.1130 br         1 NKW      -0.085100
      7 N5          66.7940    17.3020    21.6400 na         1 NKW      -0.067400
      8 N9          66.0570    16.3680    22.3630 nc         1 NKW      -0.152400
      9 N8          66.4890    16.3720    23.6250 nd         1 NKW      -0.218400
     10 C7          67.5040    17.3120    23.7010 ca         1 NKW       0.019400
     11 H1          69.8770    19.0000    25.4630 ha         1 NKW       0.136000
     12 H2          68.1210    17.2280    25.7820 ha         1 NKW       0.140000
     13 H3          68.7900    19.3190    21.2690 ha         1 NKW       0.140000
     14 H4          66.6420    17.4760    20.6510 hn         1 NKW       0.385000
@<TRIPOS>BOND
     1     1     2 ar  
     2     1     4 ar  
     3     1     6 1   
     4     2     3 ar  
     5     2    11 1   
     6     3    10 ar  
     7     3    12 1   
     8     4     5 ar  
     9     4    13 1   
    10     5     7 1   
    11     5    10 ar  
    12     7     8 1   
    13     7    14 1   
    14     8     9 2   
    15     9    10 1   
@<TRIPOS>SUBSTRUCTURE
     1 NKW         1 TEMP              0 ****  ****    0 ROOT
