@<TRIPOS>MOLECULE
NKX
   53    54     1     0     0
SMALL
abcg2


@<TRIPOS>ATOM
      1 CAA          4.3330    -3.1160     0.8840 c3         1 NKX      -0.073100
      2 OAB          3.2890    -1.9030    -2.7490 o          1 NKX      -0.507500
      3 OAC          3.6850     4.2110    -0.7050 o          1 NKX      -0.541000
      4 CAD          3.4440    -3.0380    -0.3460 c6         1 NKX      -0.260700
      5 SAE          3.9990    -1.7630    -1.4820 sy         1 NKX       1.073500
      6 CAF          3.4050    -0.3300    -0.6470 cc         1 NKX      -0.378500
      7 SAG          4.0720     1.2130    -0.9710 ss         1 NKX       0.492000
      8 CAH          2.9730     1.9070     0.1420 cc         1 NKX      -0.419500
      9 SAI          3.0160     3.6350     0.4480 sy         1 NKX       1.188600
     10 NAJ          3.9480     3.7350     1.7980 n8         1 NKX      -1.033100
     11 OAK          5.4550    -1.6620    -1.5270 o          1 NKX      -0.507500
     12 OAL          1.6850     4.0610     0.8340 o          1 NKX      -0.541000
     13 CAM          1.9620    -2.7940    -0.0600 c6         1 NKX      -0.082400
     14 CAN          1.6920    -1.5430     0.7790 c6         1 NKX       0.187000
     15 CAO          2.3840    -0.3140     0.2580 cd         1 NKX      -0.022300
     16 CAP          2.1440     1.0020     0.7280 cd         1 NKX       0.004000
     17 NAQ          0.2690    -1.3310     0.9860 n          1 NKX      -0.409800
     18 CAR         -0.3000    -1.7120     2.2770 c3         1 NKX       0.121000
     19 CAS         -0.3140    -0.5750     3.2830 c3         1 NKX      -0.115100
     20 OAT         -0.0100    -0.5900    -1.1410 o          1 NKX      -0.513000
     21 CAU         -0.4560    -0.8450    -0.0440 c          1 NKX       0.643100
     22 OAV         -1.7410    -0.6530     0.2870 os         1 NKX      -0.456100
     23 CAW         -2.5930    -0.1840    -0.7420 c3         1 NKX       0.163600
     24 OAX         -3.9420    -0.5940     2.4470 o          1 NKX      -0.355000
     25 CAY         -3.9660    -0.0150    -0.1220 c3         1 NKX       0.147300
     26 OAZ         -4.4110    -1.2760     0.4030 os         1 NKX      -0.391000
     27 NBA         -4.2850    -1.4910     1.7400 no         1 NKX       0.798000
     28 OBB         -4.5610    -2.6090     2.0430 o          1 NKX      -0.355000
     29 CBC         -4.9670     0.3870    -1.1830 c3         1 NKX       0.142600
     30 OBD         -6.1860     0.6390    -0.4810 os         1 NKX      -0.391000
     31 NBE         -7.2360     1.0210    -1.2470 no         1 NKX       0.790000
     32 OBF         -7.0660     1.1320    -2.4250 o          1 NKX      -0.353500
     33 OBG         -8.2280     1.2040    -0.6160 o          1 NKX      -0.353500
     34 HAA          4.3930    -2.1710     1.4260 hc         1 NKX       0.053033
     35 HAAA         3.9160    -3.8620     1.5570 hc         1 NKX       0.053033
     36 HAAB         5.3430    -3.4200     0.6200 hc         1 NKX       0.053033
     37 HAD          3.5390    -3.9480    -0.9410 h1         1 NKX       0.107700
     38 HNAJ         3.6140     4.4300     2.4550 hn         1 NKX       0.486000
     39 HNAA         4.9380     3.8410     1.6150 hn         1 NKX       0.486000
     40 HAM          1.4000    -2.7460    -0.9930 hc         1 NKX       0.078200
     41 HAMA         1.5920    -3.6630     0.4870 hc         1 NKX       0.078200
     42 HAN          2.1080    -1.7110     1.7780 h1         1 NKX       0.073700
     43 HAP          1.3910     1.2580     1.4610 ha         1 NKX       0.152000
     44 HAR         -1.3010    -2.1100     2.1300 h1         1 NKX       0.054200
     45 HARA         0.2950    -2.5440     2.6550 h1         1 NKX       0.054200
     46 HAS          0.6950    -0.2180     3.4970 hc         1 NKX       0.048367
     47 HASA        -0.9080     0.2650     2.9250 hc         1 NKX       0.048367
     48 HASB        -0.7470    -0.9150     4.2240 hc         1 NKX       0.048367
     49 HAW         -2.2590     0.7820    -1.1270 h1         1 NKX       0.073200
     50 HAWA        -2.6270    -0.8920    -1.5740 h1         1 NKX       0.073200
     51 HAY         -3.9340     0.7430     0.6620 h1         1 NKX       0.117700
     52 HBC         -4.6110     1.2900    -1.6820 h1         1 NKX       0.086200
     53 HBCA        -5.0980    -0.4020    -1.9260 h1         1 NKX       0.086200
@<TRIPOS>BOND
     1     1     4 1   
     2     1    34 1   
     3     1    35 1   
     4     1    36 1   
     5     2     5 2   
     6     3     9 2   
     7     4     5 1   
     8     4    13 1   
     9     4    37 1   
    10     5     6 1   
    11     5    11 2   
    12     6     7 1   
    13     6    15 2   
    14     7     8 1   
    15     8     9 1   
    16     8    16 2   
    17     9    10 1   
    18     9    12 2   
    19    10    38 1   
    20    10    39 1   
    21    13    14 1   
    22    13    40 1   
    23    13    41 1   
    24    14    15 1   
    25    14    17 1   
    26    14    42 1   
    27    15    16 1   
    28    16    43 1   
    29    17    18 1   
    30    17    21 1   
    31    18    19 1   
    32    18    44 1   
    33    18    45 1   
    34    19    46 1   
    35    19    47 1   
    36    19    48 1   
    37    20    21 2   
    38    21    22 1   
    39    22    23 1   
    40    23    25 1   
    41    23    49 1   
    42    23    50 1   
    43    24    27 1   
    44    25    26 1   
    45    25    29 1   
    46    25    51 1   
    47    26    27 1   
    48    27    28 1   
    49    29    30 1   
    50    29    52 1   
    51    29    53 1   
    52    30    31 1   
    53    31    32 1   
    54    31    33 1   
@<TRIPOS>SUBSTRUCTURE
     1 NKX         1 TEMP              0 ****  ****    0 ROOT
