@<TRIPOS>MOLECULE
NKX
   53    54     1     0     0
SMALL
No Charge or Current Charge


@<TRIPOS>ATOM
      1 CAA          4.5210    -3.2050     1.1040 c3         1 NKX      -0.073100
      2 OAB          3.6930    -2.0500    -2.6670 o          1 NKX      -0.507500
      3 OAC          3.4460     4.3220    -0.9210 o          1 NKX      -0.541000
      4 CAD          3.6770    -3.1270    -0.2080 c6         1 NKX      -0.260700
      5 SAE          4.2870    -1.8240    -1.3440 sy         1 NKX       1.073500
      6 CAF          3.5080    -0.3930    -0.6620 cc         1 NKX      -0.378500
      7 SAG          4.0690     1.2070    -1.0780 ss         1 NKX       0.492000
      8 CAH          2.8980     1.9070     0.0110 cc         1 NKX      -0.419500
      9 SAI          2.7900     3.6480     0.1950 sy         1 NKX       1.188600
     10 NAJ          3.7740     3.9080     1.4600 n8         1 NKX      -1.033100
     11 OAK          5.7390    -1.6640    -1.1900 o          1 NKX      -0.507500
     12 OAL          1.4710     4.0290     0.6920 o          1 NKX      -0.541000
     13 CAM          2.1520    -2.9380     0.0650 c6         1 NKX      -0.082400
     14 CAN          1.8010    -1.6210     0.8230 c6         1 NKX       0.187000
     15 CAO          2.4780    -0.3760     0.2520 cd         1 NKX      -0.022300
     16 CAP          2.1370     0.9510     0.6400 cd         1 NKX       0.004000
     17 NAQ          0.3270    -1.4600     0.9410 n          1 NKX      -0.409800
     18 CAR         -0.2880    -1.8550     2.2320 c3         1 NKX       0.121000
     19 CAS         -0.2880    -0.7170     3.2660 c3         1 NKX      -0.115100
     20 OAT         -0.0320    -0.7230    -1.2400 o          1 NKX      -0.513000
     21 CAU         -0.4600    -0.9540    -0.1200 c          1 NKX       0.643100
     22 OAV         -1.7610    -0.7440     0.2520 os         1 NKX      -0.456100
     23 CAW         -2.6700    -0.2200    -0.7350 c3         1 NKX       0.163600
     24 OAX         -3.8500    -1.1970     2.3770 o          1 NKX      -0.355000
     25 CAY         -4.0630    -0.0050    -0.0860 c3         1 NKX       0.147300
     26 OAZ         -4.6400    -1.3010     0.2200 os         1 NKX      -0.391000
     27 NBA         -4.3030    -1.9240     1.4830 no         1 NKX       0.798000
     28 OBB         -4.7850    -3.0480     1.6540 o          1 NKX      -0.355000
     29 CBC         -5.0380     0.7030    -1.0550 c3         1 NKX       0.142600
     30 OBD         -6.2420     1.0260    -0.3260 os         1 NKX      -0.391000
     31 NBE         -7.3030     1.6770    -1.0620 no         1 NKX       0.790000
     32 OBF         -7.1050     1.9380    -2.2560 o          1 NKX      -0.353500
     33 OBG         -8.3160     1.9540    -0.4140 o          1 NKX      -0.353500
     34 HAA          4.5220    -2.2540     1.6500 hc         1 NKX       0.053033
     35 HAAA         4.1300    -3.9760     1.7790 hc         1 NKX       0.053033
     36 HAAB         5.5660    -3.4620     0.8910 hc         1 NKX       0.053033
     37 HAD          3.8340    -4.0580    -0.7680 h1         1 NKX       0.107700
     38 HNAJ         3.1070     4.3100     2.1140 hn         1 NKX       0.486000
     39 HNAA         4.2690     4.7340     1.1340 hn         1 NKX       0.486000
     40 HAM          1.6100    -2.9590    -0.8910 hc         1 NKX       0.078200
     41 HAMA         1.7700    -3.7940     0.6380 hc         1 NKX       0.078200
     42 HAN          2.1990    -1.7350     1.8420 h1         1 NKX       0.073700
     43 HAP          1.3550     1.1820     1.3590 ha         1 NKX       0.152000
     44 HAR         -1.3120    -2.2160     2.0750 h1         1 NKX       0.054200
     45 HARA         0.2750    -2.7020     2.6450 h1         1 NKX       0.054200
     46 HAS          0.7350    -0.3850     3.4800 hc         1 NKX       0.048367
     47 HASA        -0.8620     0.1410     2.8950 hc         1 NKX       0.048367
     48 HASB        -0.7440    -1.0550     4.2040 hc         1 NKX       0.048367
     49 HAW         -2.3020     0.7420    -1.1180 h1         1 NKX       0.073200
     50 HAWA        -2.7650    -0.9090    -1.5850 h1         1 NKX       0.073200
     51 HAY         -3.9580     0.6340     0.8020 h1         1 NKX       0.117700
     52 HBC         -4.5650     1.6160    -1.4430 h1         1 NKX       0.086200
     53 HBCA        -5.2530     0.0390    -1.9040 h1         1 NKX       0.086200
@<TRIPOS>BOND
     1     1     4 1   
     2     1    34 1   
     3     1    35 1   
     4     1    36 1   
     5     2     5 2   
     6     3     9 2   
     7     4     5 1   
     8     4    13 1   
     9     4    37 1   
    10     5     6 1   
    11     5    11 2   
    12     6     7 1   
    13     6    15 2   
    14     7     8 1   
    15     8     9 1   
    16     8    16 2   
    17     9    10 1   
    18     9    12 2   
    19    10    38 1   
    20    10    39 1   
    21    13    14 1   
    22    13    40 1   
    23    13    41 1   
    24    14    15 1   
    25    14    17 1   
    26    14    42 1   
    27    15    16 1   
    28    16    43 1   
    29    17    18 1   
    30    17    21 1   
    31    18    19 1   
    32    18    44 1   
    33    18    45 1   
    34    19    46 1   
    35    19    47 1   
    36    19    48 1   
    37    20    21 2   
    38    21    22 1   
    39    22    23 1   
    40    23    25 1   
    41    23    49 1   
    42    23    50 1   
    43    24    27 1   
    44    25    26 1   
    45    25    29 1   
    46    25    51 1   
    47    26    27 1   
    48    27    28 1   
    49    29    30 1   
    50    29    52 1   
    51    29    53 1   
    52    30    31 1   
    53    31    32 1   
    54    31    33 1   
@<TRIPOS>SUBSTRUCTURE
     1 NKX         1 TEMP              0 ****  ****    0 ROOT
