@<TRIPOS>MOLECULE
NKY
   45    47     1     0     0
SMALL
abcg2


@<TRIPOS>ATOM
      1 C18         -3.1650     0.3650    -0.0320 ca         1 NKY      -0.095000
      2 C19         -4.5350     0.6130    -0.0170 ca         1 NKY      -0.118600
      3 C25         -4.1460     2.7360     1.0220 ca         1 NKY      -0.086000
      4 C22         -7.6570    -1.4090    -0.6600 c3         1 NKY       0.094300
      5 C15         -0.1200     0.0900     0.1520 cc         1 NKY       0.846900
      6 C12          0.4840    -1.7430    -0.6700 cd         1 NKY       0.774400
      7 O28          3.2410    -2.5280    -0.6220 o          1 NKY      -0.557100
      8 C02          4.5300    -0.6650     1.5070 ca         1 NKY       0.254000
      9 C03          5.4610     0.2200     2.0170 ca         1 NKY      -0.199000
     10 C04          5.7200     1.3690     1.2880 ca         1 NKY      -0.026000
     11 C05          5.0750     1.6340     0.0860 ca         1 NKY      -0.225000
     12 C06          4.1400     0.7260    -0.4030 ca         1 NKY       0.220100
     13 C08          3.6610     2.0330    -2.3190 c3         1 NKY       0.148900
     14 C09          3.8580    -0.4370     0.3230 ca         1 NKY      -0.217600
     15 C17         -2.2740     1.2960     0.5020 ca         1 NKY       0.325000
     16 C20         -5.4250    -0.4340    -0.6130 c          1 NKY       0.607700
     17 C24         -5.0350     1.8030     0.5040 ca         1 NKY      -0.130000
     18 C26         -2.7870     2.4900     1.0280 ca         1 NKY      -0.163000
     19 N11          1.5790    -1.0690    -0.1730 n          1 NKY      -0.094500
     20 N13          0.5260    -2.9300    -1.2540 nv         1 NKY      -1.075900
     21 N14         -0.5940    -1.0180    -0.4730 nc         1 NKY      -0.814000
     22 N16         -0.9000     1.1320     0.5500 nu         1 NKY      -0.931900
     23 N21         -6.6890    -0.4560    -0.1710 ns         1 NKY      -0.504900
     24 N27          1.1670     0.1230     0.3670 nd         1 NKY      -0.606800
     25 O07          3.4750     0.8560    -1.5540 os         1 NKY      -0.330100
     26 O23         -5.0100    -1.2230    -1.4540 o          1 NKY      -0.599100
     27 H1          -2.7970    -0.5560    -0.4550 ha         1 NKY       0.172000
     28 H2          -4.5170     3.6700     1.4220 ha         1 NKY       0.113000
     29 H3          -7.4070    -2.4320    -0.3740 h1         1 NKY       0.039367
     30 H4          -8.6260    -1.1600    -0.2360 h1         1 NKY       0.039367
     31 H5          -7.7370    -1.3690    -1.7460 h1         1 NKY       0.039367
     32 H6           5.9600     0.0150     2.9540 ha         1 NKY       0.139000
     33 H7           6.4440     2.0800     1.6620 ha         1 NKY       0.118000
     34 H8           5.3120     2.5400    -0.4530 ha         1 NKY       0.125000
     35 H9           3.3760     2.9260    -1.7590 h1         1 NKY       0.046700
     36 H10          4.6940     2.1360    -2.6570 h1         1 NKY       0.046700
     37 H11          3.0140     1.9380    -3.1870 h1         1 NKY       0.046700
     38 H12         -6.0930     2.0280     0.4920 ha         1 NKY       0.111000
     39 H13         -2.1110     3.2300     1.4400 ha         1 NKY       0.111000
     40 H14          1.3890    -3.4320    -1.3730 hn         1 NKY       0.526000
     41 H15         -0.3300    -3.3340    -1.5930 hn         1 NKY       0.526000
     42 H16         -0.3850     1.8880     0.9750 hn         1 NKY       0.507000
     43 H17         -6.9530     0.1200     0.6100 hn         1 NKY       0.316500
     44 C10          2.8990    -1.4450    -0.2030 c          1 NKY       0.643500
     45 F01          4.2420    -1.7770     2.1880 f          1 NKY      -0.164000
@<TRIPOS>BOND
     1     1     2 ar  
     2     1    15 ar  
     3     1    27 1   
     4     2    16 1   
     5     2    17 ar  
     6     3    17 ar  
     7     3    18 ar  
     8     3    28 1   
     9     4    23 1   
    10     4    29 1   
    11     4    30 1   
    12     4    31 1   
    13     5    21 1   
    14     5    22 1   
    15     5    24 2   
    16     6    19 1   
    17     6    20 1   
    18     6    21 2   
    19     7    44 2   
    20     8     9 ar  
    21     8    14 ar  
    22     8    45 1   
    23     9    10 ar  
    24     9    32 1   
    25    10    11 ar  
    26    10    33 1   
    27    11    12 ar  
    28    11    34 1   
    29    12    14 ar  
    30    12    25 1   
    31    13    25 1   
    32    13    35 1   
    33    13    36 1   
    34    13    37 1   
    35    14    44 1   
    36    15    18 ar  
    37    15    22 1   
    38    16    23 1   
    39    16    26 2   
    40    17    38 1   
    41    18    39 1   
    42    19    24 1   
    43    19    44 1   
    44    20    40 1   
    45    20    41 1   
    46    22    42 1   
    47    23    43 1   
@<TRIPOS>SUBSTRUCTURE
     1 NKY         1 TEMP              0 ****  ****    0 ROOT
