@<TRIPOS>MOLECULE
NKY
   45    47     1     0     0
SMALL
No Charge or Current Charge


@<TRIPOS>ATOM
      1 C18         -3.2260     0.4400    -0.1310 ca         1 NKY      -0.095000
      2 C19         -4.6360     0.5090    -0.0250 ca         1 NKY      -0.118600
      3 C25         -4.3620     2.0060     1.8950 ca         1 NKY      -0.086000
      4 C22         -7.8430    -0.8270    -1.7130 c3         1 NKY       0.094300
      5 C15         -0.1220     0.1150     0.4290 cc         1 NKY       0.846900
      6 C12          0.5730    -1.7050     0.0370 cd         1 NKY       0.774400
      7 O28          3.3090    -2.5730     0.1030 o          1 NKY      -0.557100
      8 C02          5.0230    -0.4510     1.4100 ca         1 NKY       0.254000
      9 C03          6.0390     0.5040     1.5580 ca         1 NKY      -0.199000
     10 C04          6.1460     1.5610     0.6440 ca         1 NKY      -0.026000
     11 C05          5.2370     1.6540    -0.4230 ca         1 NKY      -0.225000
     12 C06          4.2120     0.6930    -0.5740 ca         1 NKY       0.220100
     13 C08          3.3590     1.7710    -2.6300 c3         1 NKY       0.148900
     14 C09          4.0990    -0.3560     0.3580 ca         1 NKY      -0.217600
     15 C17         -2.3900     1.1320     0.7650 ca         1 NKY       0.325000
     16 C20         -5.4950    -0.2570    -1.0140 c          1 NKY       0.607700
     17 C24         -5.1940     1.3030     1.0080 ca         1 NKY      -0.130000
     18 C26         -2.9660     1.9230     1.7690 ca         1 NKY      -0.163000
     19 N11          1.6850    -0.9210     0.2470 n          1 NKY      -0.094500
     20 N13          0.5260    -2.9980    -0.2780 nv         1 NKY      -1.075900
     21 N14         -0.5670    -1.1200     0.1460 nc         1 NKY      -0.814000
     22 N16         -1.0020     1.0920     0.6610 nu         1 NKY      -0.931900
     23 N21         -6.8600    -0.1600    -0.8550 ns         1 NKY      -0.504900
     24 N27          1.1630     0.3460     0.5310 nd         1 NKY      -0.606800
     25 O07          3.3420     0.7210    -1.6470 os         1 NKY      -0.330100
     26 O23         -5.0110    -0.9300    -1.9150 o          1 NKY      -0.599100
     27 H1          -2.7740    -0.1500    -0.9220 ha         1 NKY       0.172000
     28 H2          -4.8000     2.6170     2.6810 ha         1 NKY       0.113000
     29 H3          -7.6960    -1.9140    -1.6670 h1         1 NKY       0.039367
     30 H4          -8.8560    -0.5830    -1.3670 h1         1 NKY       0.039367
     31 H5          -7.7220    -0.4850    -2.7490 h1         1 NKY       0.039367
     32 H6           6.7400     0.4230     2.3840 ha         1 NKY       0.139000
     33 H7           6.9350     2.3030     0.7560 ha         1 NKY       0.118000
     34 H8           5.3520     2.4720    -1.1270 ha         1 NKY       0.125000
     35 H9           3.1780     2.7470    -2.1600 h1         1 NKY       0.046700
     36 H10          4.3240     1.8030    -3.1510 h1         1 NKY       0.046700
     37 H11          2.5750     1.6040    -3.3780 h1         1 NKY       0.046700
     38 H12         -6.2690     1.3920     1.1350 ha         1 NKY       0.111000
     39 H13         -2.3330     2.4720     2.4610 ha         1 NKY       0.111000
     40 H14          1.3700    -3.5290    -0.0870 hn         1 NKY       0.526000
     41 H15         -0.3540    -3.4520    -0.0720 hn         1 NKY       0.526000
     42 H16         -0.5120     1.8690     1.0870 hn         1 NKY       0.507000
     43 H17         -7.1940     0.4120    -0.0900 hn         1 NKY       0.316500
     44 C10          3.0220    -1.3850     0.2290 c          1 NKY       0.643500
     45 F01          4.9280    -1.4490     2.3170 f          1 NKY      -0.164000
@<TRIPOS>BOND
     1     1     2 ar  
     2     1    15 ar  
     3     1    27 1   
     4     2    16 1   
     5     2    17 ar  
     6     3    17 ar  
     7     3    18 ar  
     8     3    28 1   
     9     4    23 1   
    10     4    29 1   
    11     4    30 1   
    12     4    31 1   
    13     5    21 1   
    14     5    22 1   
    15     5    24 2   
    16     6    19 1   
    17     6    20 1   
    18     6    21 2   
    19     7    44 2   
    20     8     9 ar  
    21     8    14 ar  
    22     8    45 1   
    23     9    10 ar  
    24     9    32 1   
    25    10    11 ar  
    26    10    33 1   
    27    11    12 ar  
    28    11    34 1   
    29    12    14 ar  
    30    12    25 1   
    31    13    25 1   
    32    13    35 1   
    33    13    36 1   
    34    13    37 1   
    35    14    44 1   
    36    15    18 ar  
    37    15    22 1   
    38    16    23 1   
    39    16    26 2   
    40    17    38 1   
    41    18    39 1   
    42    19    24 1   
    43    19    44 1   
    44    20    40 1   
    45    20    41 1   
    46    22    42 1   
    47    23    43 1   
@<TRIPOS>SUBSTRUCTURE
     1 NKY         1 TEMP              0 ****  ****    0 ROOT
