@<TRIPOS>MOLECULE
NKZ
   14    15     1     0     0
SMALL
bcc


@<TRIPOS>ATOM
      1 C1          69.4440    19.1160    24.2510 ca         1 NKZ      -0.059000
      2 C2          69.5260    19.5670    22.9170 ca         1 NKZ      -0.160000
      3 C3          68.7060    19.0750    21.9290 ca         1 NKZ      -0.030000
      4 C4          68.5310    18.1560    24.6190 ca         1 NKZ      -0.033900
      5 C6          67.6950    17.6510    23.6230 ca         1 NKZ      -0.062200
      6 BR1         68.3880    17.5300    26.3810 br         1 NKZ      -0.078100
      7 N5          66.7080    16.7320    23.5820 na         1 NKZ      -0.009100
      8 N9          66.2240    16.6210    22.3530 nc         1 NKZ      -0.153400
      9 N8          66.8400    17.4220    21.5740 nd         1 NKZ      -0.218400
     10 C7          67.7770    18.0990    22.3020 ca         1 NKZ       0.013400
     11 H1          70.1150    19.5380    24.9860 ha         1 NKZ       0.150000
     12 H2          70.2630    20.3230    22.6800 ha         1 NKZ       0.143000
     13 H3          68.7740    19.4240    20.9080 ha         1 NKZ       0.157000
     14 H4          66.3280    16.1610    24.3220 hn         1 NKZ       0.340700
@<TRIPOS>BOND
     1     1     2 ar  
     2     1     4 ar  
     3     1    11 1   
     4     2     3 ar  
     5     2    12 1   
     6     3    10 ar  
     7     3    13 1   
     8     4     5 ar  
     9     4     6 1   
    10     5     7 1   
    11     5    10 ar  
    12     7     8 1   
    13     7    14 1   
    14     8     9 2   
    15     9    10 1   
@<TRIPOS>SUBSTRUCTURE
     1 NKZ         1 TEMP              0 ****  ****    0 ROOT
