@<TRIPOS>MOLECULE
NKZ
   14    15     1     0     0
SMALL
No Charge or Current Charge


@<TRIPOS>ATOM
      1 C1          69.4640    19.1320    24.2610 ca         1 NKZ      -0.041000
      2 C2          69.5560    19.5940    22.9250 ca         1 NKZ      -0.142000
      3 C3          68.7030    19.0720    21.9260 ca         1 NKZ      -0.012000
      4 C4          68.5160    18.1450    24.6030 ca         1 NKZ      -0.033900
      5 C6          67.6900    17.6550    23.5820 ca         1 NKZ      -0.062200
      6 Br1         68.3680    17.5020    26.4000 br         1 NKZ      -0.078100
      7 N5          66.6990    16.7170    23.6080 na         1 NKZ      -0.059400
      8 N9          66.1820    16.5910    22.3220 nc         1 NKZ      -0.153400
      9 N8          66.8360    17.4320    21.5190 nd         1 NKZ      -0.218400
     10 C7          67.7710    18.0910    22.3010 ca         1 NKZ       0.013400
     11 H1          70.1240    19.5380    25.0240 ha         1 NKZ       0.132000
     12 H2          70.2890    20.3550    22.6650 ha         1 NKZ       0.125000
     13 H3          68.7640    19.4180    20.8970 ha         1 NKZ       0.139000
     14 H4          66.3570    16.1740    24.3960 hn         1 NKZ       0.391000
@<TRIPOS>BOND
     1     1     2 ar  
     2     1     4 ar  
     3     1    11 1   
     4     2     3 ar  
     5     2    12 1   
     6     3    10 ar  
     7     3    13 1   
     8     4     5 ar  
     9     4     6 1   
    10     5     7 1   
    11     5    10 ar  
    12     7     8 1   
    13     7    14 1   
    14     8     9 2   
    15     9    10 1   
@<TRIPOS>SUBSTRUCTURE
     1 NKZ         1 TEMP              0 ****  ****    0 ROOT
