@<TRIPOS>MOLECULE
NL0
   57    60     1     0     0
SMALL
abcg2


@<TRIPOS>ATOM
      1 C1          -0.2040    34.4730    40.7830 c3         1 NL0       0.282800
      2 C13         -2.5810    32.7920    44.7510 ca         1 NL0       0.290300
      3 C14         -3.6570    32.6170    45.7770 c3         1 NL0      -0.140400
      4 C15         -1.3070    32.1620    44.9050 ca         1 NL0      -0.083000
      5 C17          0.2620    30.7410    46.0700 ca         1 NL0      -0.158000
      6 C19          0.8970    31.7220    43.9730 ca         1 NL0      -0.166000
      7 N            0.1180    33.5120    41.8130 nu         1 NL0      -0.929100
      8 C            0.8580    34.3970    39.6900 c3         1 NL0      -0.103100
      9 C12         -0.7440    33.2320    42.8250 ca         1 NL0       0.562900
     10 C16         -0.9670    31.3420    45.9920 ca         1 NL0      -0.055000
     11 C18          1.2340    30.9020    45.0480 ca         1 NL0       0.327000
     12 C1A         -0.3440    32.3580    43.9040 ca         1 NL0      -0.046000
     13 C1B          3.6430    30.9500    44.6330 c6         1 NL0       0.208800
     14 C1C          4.7570    29.9720    44.3130 c6         1 NL0       0.147800
     15 C1D          3.8600    28.3980    45.8370 c6         1 NL0       0.147800
     16 C1E          2.7220    29.3370    46.1970 c6         1 NL0       0.208800
     17 C1F         -0.3200    35.8960    41.3120 ca         1 NL0      -0.103300
     18 C1G          0.5650    36.3160    42.2970 ca         1 NL0      -0.075000
     19 C1H          0.5230    37.6070    42.7910 ca         1 NL0      -0.122000
     20 C1I         -0.4160    38.4960    42.3000 ca         1 NL0      -0.062000
     21 C1K         -1.2680    36.7880    40.7910 ca         1 NL0       0.010700
     22 C1L         -1.3060    38.0920    41.3100 ca         1 NL0      -0.192300
     23 C1M         -2.2060    36.2910    39.7200 c3         1 NL0      -0.065800
     24 C1N         -2.3080    39.0930    40.8120 c3         1 NL0       0.355300
     25 F           -3.5750    38.6780    40.9760 f          1 NL0      -0.116000
     26 F1          -2.2170    40.2680    41.4430 f          1 NL0      -0.116000
     27 F12         -2.1550    39.3570    39.5040 f          1 NL0      -0.116000
     28 N1          -1.9380    33.7630    42.7650 nb         1 NL0      -0.420000
     29 N12         -2.8560    33.5290    43.7180 nb         1 NL0      -0.302000
     30 N13          2.4500    30.2540    45.1030 nh         1 NL0      -0.804400
     31 N14          5.0380    29.1600    45.4790 n7         1 NL0      -0.859400
     32 H1          -1.1590    34.1730    40.3540 h1         1 NL0       0.088700
     33 H2          -4.5510    33.1580    45.4740 hc         1 NL0       0.050367
     34 H3          -3.9210    31.5660    45.9080 hc         1 NL0       0.050367
     35 H4          -3.3440    32.9940    46.7520 hc         1 NL0       0.050367
     36 H6           1.5990    31.8360    43.1600 ha         1 NL0       0.112000
     37 H7           1.0960    33.3290    41.9630 hn         1 NL0       0.480000
     38 H8           0.9050    33.3950    39.2650 hc         1 NL0       0.044700
     39 H9           0.6290    35.0960    38.8870 hc         1 NL0       0.044700
     40 H10          1.8440    34.6550    40.0830 hc         1 NL0       0.044700
     41 H11         -1.6750    31.1850    46.7950 ha         1 NL0       0.120000
     42 H12          3.9890    31.6590    45.3970 h1         1 NL0       0.045950
     43 H13          3.4230    31.5210    43.7360 h1         1 NL0       0.045950
     44 H14          4.4620    29.3730    43.4360 h1         1 NL0       0.041200
     45 H15          5.6470    30.5390    44.0360 h1         1 NL0       0.041200
     46 H16          3.5220    27.7320    45.0280 h1         1 NL0       0.041200
     47 H17          4.0780    27.7720    46.7050 h1         1 NL0       0.041200
     48 H18          2.9680    29.8760    47.1230 h1         1 NL0       0.045950
     49 H19          1.8400    28.7270    46.3920 h1         1 NL0       0.045950
     50 H20          1.2950    35.6230    42.6960 ha         1 NL0       0.107000
     51 H21          1.2170    37.9230    43.5590 ha         1 NL0       0.118000
     52 H22         -0.4450    39.5000    42.6970 ha         1 NL0       0.130000
     53 H23         -2.8440    35.5000    40.1190 hc         1 NL0       0.056700
     54 H24         -2.8590    37.0460    39.2990 hc         1 NL0       0.056700
     55 H25         -1.6500    35.8630    38.8850 hc         1 NL0       0.056700
     56 H26          5.8090    28.5340    45.2880 hn         1 NL0       0.418000
     57 H5           0.4810    30.1450    46.9440 ha         1 NL0       0.116000
@<TRIPOS>BOND
     1     1     7 1   
     2     1     8 1   
     3     1    17 1   
     4     1    32 1   
     5     2     3 1   
     6     2     4 ar  
     7     2    29 ar  
     8     3    33 1   
     9     3    34 1   
    10     3    35 1   
    11     4    10 ar  
    12     4    12 ar  
    13     5    10 ar  
    14     5    11 ar  
    15     5    57 1   
    16     6    11 ar  
    17     6    12 ar  
    18     6    36 1   
    19     7     9 1   
    20     7    37 1   
    21     8    38 1   
    22     8    39 1   
    23     8    40 1   
    24     9    12 ar  
    25     9    28 ar  
    26    10    41 1   
    27    11    30 1   
    28    13    14 1   
    29    13    30 1   
    30    13    42 1   
    31    13    43 1   
    32    14    31 1   
    33    14    44 1   
    34    14    45 1   
    35    15    16 1   
    36    15    31 1   
    37    15    46 1   
    38    15    47 1   
    39    16    30 1   
    40    16    48 1   
    41    16    49 1   
    42    17    18 ar  
    43    17    21 ar  
    44    18    19 ar  
    45    18    50 1   
    46    19    20 ar  
    47    19    51 1   
    48    20    22 ar  
    49    20    52 1   
    50    21    22 ar  
    51    21    23 1   
    52    22    24 1   
    53    23    53 1   
    54    23    54 1   
    55    23    55 1   
    56    24    25 1   
    57    24    26 1   
    58    24    27 1   
    59    28    29 ar  
    60    31    56 1   
@<TRIPOS>SUBSTRUCTURE
     1 NL0         1 TEMP              0 ****  ****    0 ROOT
