@<TRIPOS>MOLECULE
NL0
   57    60     1     0     0
SMALL
No Charge or Current Charge


@<TRIPOS>ATOM
      1 C1          -0.4710    34.1050    40.3840 c3         1 NL0       0.282800
      2 C13         -2.9700    32.5510    44.5190 ca         1 NL0       0.290300
      3 C14         -4.0500    32.4700    45.5900 c3         1 NL0      -0.140400
      4 C15         -1.6460    32.0830    44.7210 ca         1 NL0      -0.083000
      5 C17          0.1000    31.0620    46.0860 ca         1 NL0      -0.158000
      6 C19          0.6070    31.7660    43.8220 ca         1 NL0      -0.166000
      7 N           -0.3820    32.9860    41.3290 nu         1 NL0      -0.929100
      8 C            0.4970    33.8580    39.2120 c3         1 NL0      -0.103100
      9 C12         -1.1920    32.8020    42.4480 ca         1 NL0       0.562900
     10 C16         -1.2250    31.5030    45.9360 ca         1 NL0      -0.055000
     11 C18          1.0270    31.1930    45.0350 ca         1 NL0       0.327000
     12 C1A         -0.7250    32.2120    43.6530 ca         1 NL0      -0.046000
     13 C1B          3.4930    31.7260    44.9520 c6         1 NL0       0.208800
     14 C1C          4.8400    31.0070    44.6000 c6         1 NL0       0.147800
     15 C1D          4.0870    28.9650    45.7410 c6         1 NL0       0.147800
     16 C1E          2.7270    29.6480    46.1130 c6         1 NL0       0.208800
     17 C1F         -0.1680    35.4370    41.1000 ca         1 NL0      -0.103300
     18 C1G          1.0180    35.5260    41.8590 ca         1 NL0      -0.075000
     19 C1H          1.3400    36.6960    42.5490 ca         1 NL0      -0.122000
     20 C1I          0.4820    37.7980    42.5000 ca         1 NL0      -0.062000
     21 C1K         -1.0390    36.5650    41.0230 ca         1 NL0       0.010700
     22 C1L         -0.7160    37.7560    41.7480 ca         1 NL0      -0.192300
     23 C1M         -2.3060    36.4670    40.1570 c3         1 NL0      -0.065800
     24 C1N         -1.6280    39.0030    41.7450 c3         1 NL0       0.355300
     25 F           -2.8920    38.7090    42.1280 f          1 NL0      -0.116000
     26 F1          -1.2040    39.9760    42.5850 f          1 NL0      -0.116000
     27 F12         -1.6980    39.5720    40.5190 f          1 NL0      -0.116000
     28 N1          -2.4700    33.2310    42.3220 nb         1 NL0      -0.420000
     29 N12         -3.3450    33.1080    43.3400 nb         1 NL0      -0.302000
     30 N13          2.3660    30.7610    45.1740 nh         1 NL0      -0.804400
     31 N14          5.2060    29.9390    45.5760 n7         1 NL0      -0.859400
     32 H1          -1.4840    34.1110    39.9620 h1         1 NL0       0.088700
     33 H2          -5.0040    32.8830    45.2410 hc         1 NL0       0.050367
     34 H3          -4.2310    31.4300    45.8840 hc         1 NL0       0.050367
     35 H4          -3.7570    33.0320    46.4840 hc         1 NL0       0.050367
     36 H6           1.3250    31.8520    43.0140 ha         1 NL0       0.112000
     37 H7           0.5250    32.5380    41.4030 hn         1 NL0       0.480000
     38 H8           0.2480    32.9240    38.6950 hc         1 NL0       0.044700
     39 H9           0.4260    34.6770    38.4860 hc         1 NL0       0.044700
     40 H10          1.5360    33.7970    39.5570 hc         1 NL0       0.044700
     41 H11         -1.9110    31.3920    46.7730 ha         1 NL0       0.120000
     42 H12          3.6440    32.3280    45.8610 h1         1 NL0       0.045950
     43 H13          3.2540    32.4280    44.1400 h1         1 NL0       0.045950
     44 H14          4.7450    30.5600    43.5990 h1         1 NL0       0.041200
     45 H15          5.6470    31.7520    44.5490 h1         1 NL0       0.041200
     46 H16          3.9530    28.4110    44.7990 h1         1 NL0       0.041200
     47 H17          4.3490    28.2300    46.5160 h1         1 NL0       0.041200
     48 H18          2.7990    30.0370    47.1400 h1         1 NL0       0.045950
     49 H19          1.9430    28.8770    46.1090 h1         1 NL0       0.045950
     50 H20          1.6960    34.6780    41.9200 ha         1 NL0       0.107000
     51 H21          2.2570    36.7470    43.1320 ha         1 NL0       0.118000
     52 H22          0.7660    38.6890    43.0560 ha         1 NL0       0.130000
     53 H23         -3.0360    35.7890    40.6140 hc         1 NL0       0.056700
     54 H24         -2.8150    37.4180    39.9870 hc         1 NL0       0.056700
     55 H25         -2.0690    36.0850    39.1570 hc         1 NL0       0.056700
     56 H26          6.0390    29.4410    45.2340 hn         1 NL0       0.418000
     57 H5           0.4050    30.6310    47.0350 ha         1 NL0       0.116000
@<TRIPOS>BOND
     1     1     7 1   
     2     1     8 1   
     3     1    17 1   
     4     1    32 1   
     5     2     3 1   
     6     2     4 ar  
     7     2    29 ar  
     8     3    33 1   
     9     3    34 1   
    10     3    35 1   
    11     4    10 ar  
    12     4    12 ar  
    13     5    10 ar  
    14     5    11 ar  
    15     5    57 1   
    16     6    11 ar  
    17     6    12 ar  
    18     6    36 1   
    19     7     9 1   
    20     7    37 1   
    21     8    38 1   
    22     8    39 1   
    23     8    40 1   
    24     9    12 ar  
    25     9    28 ar  
    26    10    41 1   
    27    11    30 1   
    28    13    14 1   
    29    13    30 1   
    30    13    42 1   
    31    13    43 1   
    32    14    31 1   
    33    14    44 1   
    34    14    45 1   
    35    15    16 1   
    36    15    31 1   
    37    15    46 1   
    38    15    47 1   
    39    16    30 1   
    40    16    48 1   
    41    16    49 1   
    42    17    18 ar  
    43    17    21 ar  
    44    18    19 ar  
    45    18    50 1   
    46    19    20 ar  
    47    19    51 1   
    48    20    22 ar  
    49    20    52 1   
    50    21    22 ar  
    51    21    23 1   
    52    22    24 1   
    53    23    53 1   
    54    23    54 1   
    55    23    55 1   
    56    24    25 1   
    57    24    26 1   
    58    24    27 1   
    59    28    29 ar  
    60    31    56 1   
@<TRIPOS>SUBSTRUCTURE
     1 NL0         1 TEMP              0 ****  ****    0 ROOT
