@<TRIPOS>MOLECULE
NL1
   41    43     1     0     0
SMALL
No Charge or Current Charge


@<TRIPOS>ATOM
      1 N1         -19.6850    44.3420    -5.7970 nt         1 NL1      -0.604000
      2 C1         -20.4310    43.4530    -6.4850 c          1 NL1       0.626700
      3 O1         -21.6100    43.3250    -6.2030 o          1 NL1      -0.608100
      4 C2         -19.7780    42.6550    -7.5700 ca         1 NL1      -0.244600
      5 C3         -18.4090    42.8170    -7.8840 ca         1 NL1       0.381900
      6 N2         -17.7720    42.1200    -8.8580 nb         1 NL1      -0.692000
      7 C4         -18.5060    41.2240    -9.5510 ca         1 NL1       0.390500
      8 N3         -18.1520    40.3730   -10.5990 na         1 NL1      -0.179400
      9 C5         -16.7760    40.3510   -11.1390 c3         1 NL1      -0.003400
     10 C6         -16.4760    41.5170   -12.0910 c          1 NL1       0.588100
     11 O2         -16.2610    41.3590   -13.2860 o          1 NL1      -0.579100
     12 N4         -16.4660    42.7610   -11.5010 ns         1 NL1      -0.504900
     13 C7         -16.2630    44.0390   -12.1860 c6         1 NL1       0.111700
     14 C8         -17.5830    44.5260   -12.8310 c6         1 NL1      -0.130400
     15 C9         -17.4030    45.9180   -13.4780 c6         1 NL1       0.150800
     16 N5         -16.9050    46.9000   -12.4840 n7         1 NL1      -0.844400
     17 C10        -15.6250    46.4850   -11.8610 c6         1 NL1       0.150800
     18 C11        -15.7700    45.1050   -11.1790 c6         1 NL1      -0.130400
     19 C12        -19.2460    39.5990   -11.0420 cc         1 NL1      -0.140100
     20 C13        -20.2910    40.0050   -10.2300 cd         1 NL1      -0.215200
     21 C14        -19.8410    41.0140    -9.3030 ca         1 NL1      -0.140800
     22 C15        -20.5280    41.7140    -8.3090 ca         1 NL1       0.033000
     23 H1         -20.1220    44.8820    -5.0640 hn         1 NL1       0.312000
     24 H2         -18.7070    44.4680    -6.0080 hn         1 NL1       0.312000
     25 H3         -17.7850    43.5290    -7.3460 h4         1 NL1       0.013100
     26 H5         -16.6140    39.4130   -11.6830 h1         1 NL1       0.076200
     27 H4         -16.0600    40.3950   -10.3090 h1         1 NL1       0.076200
     28 H6         -16.6980    42.7790   -10.5120 hn         1 NL1       0.308500
     29 H7         -15.5010    43.9060   -12.9710 h1         1 NL1       0.084700
     30 H8         -18.3800    44.5700   -12.0750 hc         1 NL1       0.049450
     31 H9         -17.9160    43.8090   -13.5940 hc         1 NL1       0.049450
     32 H11        -18.3630    46.2620   -13.8920 h1         1 NL1       0.056950
     33 H10        -16.6910    45.8460   -14.3150 h1         1 NL1       0.056950
     34 H12        -17.6100    46.9890   -11.7420 hn         1 NL1       0.403000
     35 H13        -14.8380    46.4360   -12.6290 h1         1 NL1       0.056950
     36 H14        -15.3140    47.2350   -11.1180 h1         1 NL1       0.056950
     37 H16        -14.8020    44.8020   -10.7570 hc         1 NL1       0.049450
     38 H15        -16.4690    45.1820   -10.3350 hc         1 NL1       0.049450
     39 H17        -19.1900    38.8730   -11.8480 h4         1 NL1       0.216000
     40 H18        -21.3050    39.6140   -10.2910 ha         1 NL1       0.213000
     41 H19        -21.5870    41.5380    -8.1240 ha         1 NL1       0.144000
@<TRIPOS>BOND
     1     1     2 1   
     2     1    23 1   
     3     1    24 1   
     4     2     3 2   
     5     2     4 1   
     6     4     5 ar  
     7     4    22 ar  
     8     5     6 ar  
     9     5    25 1   
    10     6     7 ar  
    11     7     8 1   
    12     7    21 ar  
    13     8     9 1   
    14     8    19 1   
    15     9    10 1   
    16     9    26 1   
    17     9    27 1   
    18    10    11 2   
    19    10    12 1   
    20    12    13 1   
    21    12    28 1   
    22    13    14 1   
    23    13    18 1   
    24    13    29 1   
    25    14    15 1   
    26    14    30 1   
    27    14    31 1   
    28    15    16 1   
    29    15    32 1   
    30    15    33 1   
    31    16    17 1   
    32    16    34 1   
    33    17    18 1   
    34    17    35 1   
    35    17    36 1   
    36    18    37 1   
    37    18    38 1   
    38    19    20 2   
    39    19    39 1   
    40    20    21 1   
    41    20    40 1   
    42    21    22 ar  
    43    22    41 1   
@<TRIPOS>SUBSTRUCTURE
     1 NL1         1 TEMP              0 ****  ****    0 ROOT
