@<TRIPOS>MOLECULE
NL1
   41    43     1     0     0
SMALL
bcc


@<TRIPOS>ATOM
      1 N1         -22.0720    43.5950    -6.1860 nt         1 NL1      -0.671000
      2 C1         -22.0300    42.2960    -6.5280 c          1 NL1       0.693700
      3 O1         -22.8360    41.4790    -6.1030 o          1 NL1      -0.608100
      4 C2         -20.9390    41.8820    -7.4590 ca         1 NL1      -0.309900
      5 C3         -19.7600    42.6280    -7.6250 ca         1 NL1       0.447200
      6 N2         -18.7690    42.2840    -8.4300 nb         1 NL1      -0.692000
      7 C4         -18.9510    41.1610    -9.1030 ca         1 NL1       0.455800
      8 N3         -18.0680    40.6220    -9.9830 na         1 NL1      -0.150100
      9 C5         -16.8580    41.2560   -10.4140 c3         1 NL1      -0.032700
     10 C6         -17.1470    42.4330   -11.3440 c          1 NL1       0.655100
     11 O2         -18.2240    42.5490   -11.9040 o          1 NL1      -0.579100
     12 N4         -16.1130    43.2700   -11.5000 ns         1 NL1      -0.571900
     13 C7         -16.1380    44.4490   -12.3450 c6         1 NL1       0.111700
     14 C8         -16.4520    45.7120   -11.5440 c6         1 NL1      -0.130400
     15 C9         -16.3940    46.9450   -12.4460 c6         1 NL1       0.150800
     16 N5         -15.1440    47.0860   -13.1740 n7         1 NL1      -0.789200
     17 C10        -14.8230    45.8830   -13.9240 c6         1 NL1       0.150800
     18 C11        -14.8130    44.6070   -13.0820 c6         1 NL1      -0.130400
     19 C12        -18.6140    39.4690   -10.4900 cc         1 NL1      -0.090100
     20 C13        -19.8310    39.2290    -9.9270 cd         1 NL1      -0.165200
     21 C14        -20.0760    40.3100    -9.0270 ca         1 NL1      -0.206100
     22 C15        -21.0900    40.6910    -8.1620 ca         1 NL1       0.015000
     23 H1         -22.8120    43.9190    -5.5850 hn         1 NL1       0.312000
     24 H2         -21.5330    44.3010    -6.6550 hn         1 NL1       0.312000
     25 H3         -19.6000    43.5380    -7.0580 h4         1 NL1       0.013100
     26 H5         -16.2510    40.5220   -10.9470 h1         1 NL1       0.076200
     27 H4         -16.2780    41.5790    -9.5470 h1         1 NL1       0.076200
     28 H6         -15.2890    43.1270   -10.9350 hn         1 NL1       0.308500
     29 H7         -16.9290    44.2970   -13.0830 h1         1 NL1       0.084700
     30 H8         -15.7230    45.8140   -10.7330 hc         1 NL1       0.049450
     31 H9         -17.4400    45.6280   -11.0830 hc         1 NL1       0.049450
     32 H11        -16.5640    47.8480   -11.8570 h1         1 NL1       0.056950
     33 H10        -17.2090    46.8930   -13.1770 h1         1 NL1       0.056950
     34 H12        -14.3980    47.2690   -12.5120 hn         1 NL1       0.347800
     35 H13        -15.5620    45.7770   -14.7260 h1         1 NL1       0.056950
     36 H14        -13.8550    46.0170   -14.4090 h1         1 NL1       0.056950
     37 H16        -14.6290    43.7380   -13.7190 hc         1 NL1       0.049450
     38 H15        -13.9910    44.6580   -12.3580 hc         1 NL1       0.049450
     39 H17        -18.0700    38.8920   -11.2220 h4         1 NL1       0.166000
     40 H18        -20.4720    38.3860   -10.1310 ha         1 NL1       0.163000
     41 H19        -21.9830    40.0900    -8.0440 ha         1 NL1       0.162000
@<TRIPOS>BOND
     1     1     2 1   
     2     1    23 1   
     3     1    24 1   
     4     2     3 2   
     5     2     4 1   
     6     4     5 ar  
     7     4    22 ar  
     8     5     6 ar  
     9     5    25 1   
    10     6     7 ar  
    11     7     8 1   
    12     7    21 ar  
    13     8     9 1   
    14     8    19 1   
    15     9    10 1   
    16     9    26 1   
    17     9    27 1   
    18    10    11 2   
    19    10    12 1   
    20    12    13 1   
    21    12    28 1   
    22    13    14 1   
    23    13    18 1   
    24    13    29 1   
    25    14    15 1   
    26    14    30 1   
    27    14    31 1   
    28    15    16 1   
    29    15    32 1   
    30    15    33 1   
    31    16    17 1   
    32    16    34 1   
    33    17    18 1   
    34    17    35 1   
    35    17    36 1   
    36    18    37 1   
    37    18    38 1   
    38    19    20 2   
    39    19    39 1   
    40    20    21 1   
    41    20    40 1   
    42    21    22 ar  
    43    22    41 1   
@<TRIPOS>SUBSTRUCTURE
     1 NL1         1 TEMP              0 ****  ****    0 ROOT
