@<TRIPOS>MOLECULE
NL2
   14    15     1     0     0
SMALL
No Charge or Current Charge


@<TRIPOS>ATOM
      1 C1          69.0370    18.8450    24.4970 ca         1 NL2      -0.021000
      2 C2          69.3360    19.2830    23.1830 ca         1 NL2      -0.055900
      3 C3          68.6400    18.7530    22.0720 ca         1 NL2       0.018000
      4 C4          68.0370    17.8710    24.7040 ca         1 NL2      -0.033900
      5 C6          67.3720    17.3720    23.5760 ca         1 NL2      -0.056200
      6 Br1         67.6110    17.2590    26.4670 br         1 NL2      -0.066100
      7 N5          66.3780    16.4430    23.4640 na         1 NL2      -0.056400
      8 N9          66.0610    16.3010    22.1170 nc         1 NL2      -0.148400
      9 N8          66.8400    17.1230    21.4100 nd         1 NL2      -0.212400
     10 C7          67.6520    17.7870    22.3150 ca         1 NL2       0.009400
     11 Br2         70.6930    20.6030    22.9090 br         1 NL2      -0.075100
     12 H1          69.5780    19.2580    25.3450 ha         1 NL2       0.148000
     13 H2          68.8610    19.0820    21.0600 ha         1 NL2       0.155000
     14 H3          65.9140    15.9170    24.1990 hn         1 NL2       0.394000
@<TRIPOS>BOND
     1     1     2 ar  
     2     1     4 ar  
     3     1    12 1   
     4     2     3 ar  
     5     2    11 1   
     6     3    10 ar  
     7     3    13 1   
     8     4     5 ar  
     9     4     6 1   
    10     5     7 1   
    11     5    10 ar  
    12     7     8 1   
    13     7    14 1   
    14     8     9 2   
    15     9    10 1   
@<TRIPOS>SUBSTRUCTURE
     1 NL2         1 TEMP              0 ****  ****    0 ROOT
