@<TRIPOS>MOLECULE
NL2
   14    15     1     0     0
SMALL
bcc


@<TRIPOS>ATOM
      1 C1          69.0230    18.8310    24.4870 ca         1 NL2      -0.039000
      2 C2          69.3020    19.2530    23.1690 ca         1 NL2      -0.055900
      3 C3          68.6430    18.7580    22.0700 ca         1 NL2       0.000000
      4 C4          68.0530    17.8850    24.7200 ca         1 NL2      -0.033900
      5 C6          67.3730    17.3690    23.6180 ca         1 NL2      -0.056200
      6 BR1         67.6420    17.2950    26.4480 br         1 NL2      -0.066100
      7 N5          66.3940    16.4600    23.4390 na         1 NL2      -0.006100
      8 N9          66.1030    16.3360    22.1520 nc         1 NL2      -0.148400
      9 N8          66.8410    17.1180    21.4660 nd         1 NL2      -0.212400
     10 C7          67.6620    17.7960    22.3210 ca         1 NL2       0.009400
     11 BR2         70.6460    20.5540    22.9310 br         1 NL2      -0.075100
     12 H1          69.5740    19.2550    25.3160 ha         1 NL2       0.166000
     13 H2          68.8600    19.0840    21.0620 ha         1 NL2       0.173000
     14 H3          65.8950    15.9050    24.1190 hn         1 NL2       0.343700
@<TRIPOS>BOND
     1     1     2 ar  
     2     1     4 ar  
     3     1    12 1   
     4     2     3 ar  
     5     2    11 1   
     6     3    10 ar  
     7     3    13 1   
     8     4     5 ar  
     9     4     6 1   
    10     5     7 1   
    11     5    10 ar  
    12     7     8 1   
    13     7    14 1   
    14     8     9 2   
    15     9    10 1   
@<TRIPOS>SUBSTRUCTURE
     1 NL2         1 TEMP              0 ****  ****    0 ROOT
