@<TRIPOS>MOLECULE
NL3
   41    45     1     0     0
SMALL
abcg2


@<TRIPOS>ATOM
      1 C10         33.2420    49.1230   -24.0550 c3         1 NL3       0.061300
      2 C11         32.0940    48.3820   -24.6580 cc         1 NL3       0.170300
      3 C12         30.8400    48.1030   -24.0900 cc         1 NL3      -0.217000
      4 C13         30.1600    47.4020   -25.0630 cd         1 NL3      -0.179600
      5 C16         28.7800    46.7940   -25.1040 c          1 NL3       0.737600
      6 C17         32.3410    52.5530   -28.2270 cc         1 NL3       0.040400
      7 C18         32.5250    53.6000   -29.0730 cd         1 NL3      -0.204200
      8 C19         32.6280    54.0290   -31.5930 ca         1 NL3      -0.080000
      9 C2          32.7500    51.0250   -22.4950 cc         1 NL3      -0.142100
     10 C20         32.5470    53.4480   -32.8420 ca         1 NL3      -0.116000
     11 C21         32.3150    52.0760   -32.9920 ca         1 NL3      -0.108000
     12 C22         32.1630    51.2840   -31.8730 ca         1 NL3       0.149000
     13 C23         32.4720    53.2310   -30.4530 ca         1 NL3      -0.054800
     14 C24         32.2410    51.8540   -30.6100 ca         1 NL3      -0.189000
     15 C3          32.3840    52.3380   -22.5750 cd         1 NL3      -0.262200
     16 C4          31.9870    53.7990   -24.6980 ca         1 NL3      -0.076000
     17 C5          32.0010    53.7450   -26.0740 ca         1 NL3      -0.123000
     18 C6          32.3340    52.5580   -26.7660 ca         1 NL3      -0.047800
     19 C7          32.6540    51.4080   -26.0550 ca         1 NL3      -0.079000
     20 C8          32.6330    51.4700   -24.6660 ca         1 NL3      -0.041200
     21 C9          32.3040    52.6500   -23.9640 ca         1 NL3      -0.086800
     22 N1          32.9100    50.4980   -23.7460 na         1 NL3      -0.069700
     23 N14         31.0100    47.3120   -26.1030 na         1 NL3       0.030800
     24 N15         32.1780    47.8950   -25.8870 nd         1 NL3      -0.580800
     25 O18         28.0890    46.9570   -24.0850 o          1 NL3      -0.706000
     26 O19         28.4940    46.1940   -26.1570 o          1 NL3      -0.706000
     27 S1          32.0790    51.0540   -29.0890 ss         1 NL3       0.148400
     28 CL1         31.8790    49.5850   -32.0110 cl         1 NL3      -0.190000
     29 H1          33.5600    48.6530   -23.1240 h1         1 NL3       0.055700
     30 H2          34.0950    49.0970   -24.7360 h1         1 NL3       0.055700
     31 H3          30.4860    48.3720   -23.1090 ha         1 NL3       0.142000
     32 H4          32.7190    54.6100   -28.7400 ha         1 NL3       0.200000
     33 H5          32.8100    55.0910   -31.4900 ha         1 NL3       0.112000
     34 H6          32.9170    50.4080   -21.6250 h4         1 NL3       0.208000
     35 H7          32.6660    54.0560   -33.7280 ha         1 NL3       0.108000
     36 H8          32.2550    51.6380   -33.9790 ha         1 NL3       0.120000
     37 H9          32.1990    52.9980   -21.7430 ha         1 NL3       0.196000
     38 H10         31.7220    54.7200   -24.1950 ha         1 NL3       0.105000
     39 H11         31.7270    54.6270   -26.6380 ha         1 NL3       0.103000
     40 H12         32.9240    50.4900   -26.5620 ha         1 NL3       0.139000
     41 H13         30.8170    46.8550   -26.9810 hn         1 NL3       0.378000
@<TRIPOS>BOND
     1     1     2 1   
     2     1    22 1   
     3     1    29 1   
     4     1    30 1   
     5     2     3 1   
     6     2    24 2   
     7     3     4 2   
     8     3    31 1   
     9     4     5 1   
    10     4    23 1   
    11     5    25 1   
    12     5    26 1   
    13     6     7 2   
    14     6    18 1   
    15     6    27 1   
    16     7    13 1   
    17     7    32 1   
    18     8    10 ar  
    19     8    13 ar  
    20     8    33 1   
    21     9    15 2   
    22     9    22 1   
    23     9    34 1   
    24    10    11 ar  
    25    10    35 1   
    26    11    12 ar  
    27    11    36 1   
    28    12    14 ar  
    29    12    28 1   
    30    13    14 ar  
    31    14    27 1   
    32    15    21 1   
    33    15    37 1   
    34    16    17 ar  
    35    16    21 ar  
    36    16    38 1   
    37    17    18 ar  
    38    17    39 1   
    39    18    19 ar  
    40    19    20 ar  
    41    19    40 1   
    42    20    21 ar  
    43    20    22 1   
    44    23    24 1   
    45    23    41 1   
@<TRIPOS>SUBSTRUCTURE
     1 NL3         1 TEMP              0 ****  ****    0 ROOT
