@<TRIPOS>MOLECULE
NL3
   41    45     1     0     0
SMALL
No Charge or Current Charge


@<TRIPOS>ATOM
      1 C10         33.2870    49.1050   -24.0650 c3         1 NL3       0.061300
      2 C11         32.1880    48.2800   -24.6930 cc         1 NL3       0.170300
      3 C12         30.9140    48.1460   -24.1200 cc         1 NL3      -0.217000
      4 C13         30.1840    47.3370   -24.9440 cd         1 NL3      -0.179600
      5 C16         28.7730    46.8990   -24.7680 c          1 NL3       0.737600
      6 C17         32.2320    52.4110   -28.2980 cc         1 NL3       0.040400
      7 C18         32.5190    53.5060   -29.0900 cd         1 NL3      -0.204200
      8 C19         32.7500    54.1270   -31.5510 ca         1 NL3      -0.080000
      9 C2          32.7260    51.0120   -22.4170 cc         1 NL3      -0.142100
     10 C20         32.6920    53.6530   -32.8770 ca         1 NL3      -0.116000
     11 C21         32.3940    52.2950   -33.1310 ca         1 NL3      -0.108000
     12 C22         32.1540    51.4080   -32.0630 ca         1 NL3       0.149000
     13 C23         32.5060    53.2260   -30.5050 ca         1 NL3      -0.054800
     14 C24         32.2150    51.8970   -30.7470 ca         1 NL3      -0.189000
     15 C3          32.3270    52.3240   -22.6350 cd         1 NL3      -0.262200
     16 C4          31.8730    53.7520   -24.7470 ca         1 NL3      -0.076000
     17 C5          31.8770    53.6880   -26.1570 ca         1 NL3      -0.123000
     18 C6          32.2380    52.4890   -26.8330 ca         1 NL3      -0.047800
     19 C7          32.5920    51.3440   -26.0770 ca         1 NL3      -0.079000
     20 C8          32.5800    51.4360   -24.6760 ca         1 NL3      -0.041200
     21 C9          32.2330    52.5980   -24.0460 ca         1 NL3      -0.086800
     22 N1          32.8770    50.4770   -23.7120 na         1 NL3      -0.069700
     23 N14         31.0650    47.0160   -25.9840 na         1 NL3       0.030800
     24 N15         32.3230    47.6080   -25.8220 nd         1 NL3      -0.580800
     25 O18         28.1520    47.2810   -23.7860 o          1 NL3      -0.706000
     26 O19         28.2930    46.1670   -25.6220 o          1 NL3      -0.706000
     27 S1          31.9470    50.9340   -29.2600 ss         1 NL3       0.148400
     28 Cl1         31.7840    49.7180   -32.3840 cl         1 NL3      -0.190000
     29 H1          33.6300    48.5980   -23.1550 h1         1 NL3       0.055700
     30 H2          34.1400    49.1630   -24.7520 h1         1 NL3       0.055700
     31 H3          30.5870    48.6110   -23.1950 ha         1 NL3       0.142000
     32 H4          32.7610    54.4850   -28.6880 ha         1 NL3       0.200000
     33 H5          32.9800    55.1700   -31.3450 ha         1 NL3       0.112000
     34 H6          32.9030    50.4470   -21.5070 h4         1 NL3       0.208000
     35 H7          32.8770    54.3330   -33.7050 ha         1 NL3       0.108000
     36 H8          32.3500    51.9320   -34.1540 ha         1 NL3       0.120000
     37 H9          32.1160    53.0420   -21.8460 ha         1 NL3       0.196000
     38 H10         31.5950    54.6640   -24.2250 ha         1 NL3       0.105000
     39 H11         31.5810    54.5690   -26.7200 ha         1 NL3       0.103000
     40 H12         32.8720    50.4160   -26.5670 ha         1 NL3       0.139000
     41 H13         30.8470    46.4190   -26.7830 hn         1 NL3       0.378000
@<TRIPOS>BOND
     1     1     2 1   
     2     1    22 1   
     3     1    29 1   
     4     1    30 1   
     5     2     3 1   
     6     2    24 2   
     7     3     4 2   
     8     3    31 1   
     9     4     5 1   
    10     4    23 1   
    11     5    25 1   
    12     5    26 1   
    13     6     7 2   
    14     6    18 1   
    15     6    27 1   
    16     7    13 1   
    17     7    32 1   
    18     8    10 ar  
    19     8    13 ar  
    20     8    33 1   
    21     9    15 2   
    22     9    22 1   
    23     9    34 1   
    24    10    11 ar  
    25    10    35 1   
    26    11    12 ar  
    27    11    36 1   
    28    12    14 ar  
    29    12    28 1   
    30    13    14 ar  
    31    14    27 1   
    32    15    21 1   
    33    15    37 1   
    34    16    17 ar  
    35    16    21 ar  
    36    16    38 1   
    37    17    18 ar  
    38    17    39 1   
    39    18    19 ar  
    40    19    20 ar  
    41    19    40 1   
    42    20    21 ar  
    43    20    22 1   
    44    23    24 1   
    45    23    41 1   
@<TRIPOS>SUBSTRUCTURE
     1 NL3         1 TEMP              0 ****  ****    0 ROOT
