@<TRIPOS>MOLECULE
NL4
   57    61     1     0     0
SMALL
abcg2


@<TRIPOS>ATOM
      1 C01          6.4420     2.5160    -2.8010 c3         1 NL4       0.086300
      2 N02          6.2530     1.6790    -1.6340 n          1 NL4      -0.404800
      3 C03          7.4720     1.1430    -1.0600 c3         1 NL4       0.086300
      4 C04          5.0100     1.2620    -1.3290 c          1 NL4       0.610700
      5 O05          4.0400     1.5020    -2.0390 o          1 NL4      -0.591100
      6 C06          4.8080     0.5100    -0.0510 ca         1 NL4      -0.145600
      7 C07          5.2590     1.0050     1.1700 ca         1 NL4      -0.071000
      8 C08          4.9610     0.3290     2.3440 ca         1 NL4      -0.123000
      9 C09          4.2270    -0.8480     2.3040 ca         1 NL4      -0.060000
     10 C10          3.7730    -1.3510     1.0900 ca         1 NL4      -0.125300
     11 C11          2.9520    -2.6110     1.0400 c3         1 NL4       0.137900
     12 N12          1.5340    -2.3190     0.9550 na         1 NL4       0.133800
     13 C13          0.7430    -2.4460    -0.1190 cc         1 NL4      -0.122000
     14 C14         -0.5050    -1.9800     0.2490 cd         1 NL4      -0.175000
     15 C15         -1.7260    -1.8830    -0.5370 ca         1 NL4       0.067000
     16 C16         -2.2180    -2.8580    -1.4070 ca         1 NL4       0.062000
     17 CL1         -1.3580    -4.3410    -1.6430 cl         1 NL4      -0.199000
     18 C18         -3.4240    -2.6970    -2.0960 ca         1 NL4       0.338900
     19 N19         -4.1950    -1.6280    -1.9940 nb         1 NL4      -0.604000
     20 C20         -3.7540    -0.6760    -1.1840 ca         1 NL4       0.479000
     21 N21         -4.3650     0.5180    -0.9390 nc         1 NL4      -0.644700
     22 C22         -3.5730     1.1470    -0.1040 cd         1 NL4       0.540400
     23 C23         -3.8080     2.4580     0.4370 cd         1 NL4      -0.258900
     24 C24         -2.9970     3.1750     1.3000 cc         1 NL4      -0.147000
     25 N25         -3.6130     4.3340     1.5300 na         1 NL4       0.144800
     26 C26         -3.1660     5.4140     2.3770 c3         1 NL4       0.072900
     27 N27         -4.7750     4.4320     0.8810 nc         1 NL4      -0.533800
     28 C28         -4.9190     3.3080     0.2080 cd         1 NL4       0.323300
     29 C29         -6.1170     3.0680    -0.6410 c3         1 NL4      -0.123400
     30 N30         -2.4670     0.4130     0.2180 na         1 NL4      -0.307600
     31 C31         -2.5520    -0.7680    -0.4600 ca         1 NL4      -0.122200
     32 C32         -0.3330    -1.5910     1.5950 cd         1 NL4       0.246900
     33 N33          0.9000    -1.8050     2.0040 nc         1 NL4      -0.520800
     34 C34          4.0530    -0.6560    -0.0800 ca         1 NL4      -0.049000
     35 H011         6.5450     1.9230    -3.7130 h1         1 NL4       0.042700
     36 H012         5.6100     3.2040    -2.9280 h1         1 NL4       0.042700
     37 H013         7.3520     3.1000    -2.6710 h1         1 NL4       0.042700
     38 H031         8.0380     1.9200    -0.5450 h1         1 NL4       0.042700
     39 H032         7.2680     0.3410    -0.3590 h1         1 NL4       0.042700
     40 H033         8.0980     0.7360    -1.8560 h1         1 NL4       0.042700
     41 H07          5.8350     1.9210     1.2100 ha         1 NL4       0.121000
     42 H34          3.6920    -1.0360    -1.0290 ha         1 NL4       0.127000
     43 H08          5.3030     0.7210     3.2930 ha         1 NL4       0.120000
     44 H09          4.0080    -1.3780     3.2230 ha         1 NL4       0.124000
     45 H111         3.2110    -3.2140     0.1710 h1         1 NL4       0.071200
     46 H112         3.1190    -3.2230     1.9270 h1         1 NL4       0.071200
     47 H13          1.1130    -2.8340    -1.0530 h4         1 NL4       0.166000
     48 H32         -1.0750    -1.2020     2.2780 h4         1 NL4       0.038100
     49 H18         -3.7630    -3.4890    -2.7530 h4         1 NL4       0.034100
     50 H30         -1.7030     0.7110     0.8040 hn         1 NL4       0.362000
     51 H24         -2.0460     2.9420     1.7520 h4         1 NL4       0.151000
     52 H261        -3.0840     6.3330     1.8000 h1         1 NL4       0.059367
     53 H262        -3.8650     5.5640     3.1970 h1         1 NL4       0.059367
     54 H263        -2.1910     5.1620     2.7830 h1         1 NL4       0.059367
     55 H291        -6.6480     2.1690    -0.3290 hc         1 NL4       0.059367
     56 H292        -6.7980     3.9140    -0.5770 hc         1 NL4       0.059367
     57 H293        -5.8390     2.9230    -1.6850 hc         1 NL4       0.059367
@<TRIPOS>BOND
     1     1     2 1   
     2     1    35 1   
     3     1    36 1   
     4     1    37 1   
     5     2     3 1   
     6     2     4 1   
     7     3    38 1   
     8     3    39 1   
     9     3    40 1   
    10     4     5 2   
    11     4     6 1   
    12     6     7 ar  
    13     6    34 ar  
    14     7     8 ar  
    15     7    41 1   
    16     8     9 ar  
    17     8    43 1   
    18     9    10 ar  
    19     9    44 1   
    20    10    11 1   
    21    10    34 ar  
    22    11    12 1   
    23    11    45 1   
    24    11    46 1   
    25    12    13 1   
    26    12    33 1   
    27    13    14 2   
    28    13    47 1   
    29    14    15 1   
    30    14    32 1   
    31    15    16 ar  
    32    15    31 ar  
    33    16    17 1   
    34    16    18 ar  
    35    18    19 ar  
    36    18    49 1   
    37    19    20 ar  
    38    20    21 1   
    39    20    31 ar  
    40    21    22 2   
    41    22    23 1   
    42    22    30 1   
    43    23    24 2   
    44    23    28 1   
    45    24    25 1   
    46    24    51 1   
    47    25    26 1   
    48    25    27 1   
    49    26    52 1   
    50    26    53 1   
    51    26    54 1   
    52    27    28 2   
    53    28    29 1   
    54    29    55 1   
    55    29    56 1   
    56    29    57 1   
    57    30    31 1   
    58    30    50 1   
    59    32    33 2   
    60    32    48 1   
    61    34    42 1   
@<TRIPOS>SUBSTRUCTURE
     1 NL4         1 TEMP              0 ****  ****    0 ROOT
