@<TRIPOS>MOLECULE
NL4
   57    61     1     0     0
SMALL
No Charge or Current Charge


@<TRIPOS>ATOM
      1 C01          5.9920     2.7360    -2.7280 c3         1 NL4       0.086300
      2 N02          6.0680     1.6760    -1.6990 n          1 NL4      -0.404800
      3 C03          7.2840     0.8300    -1.7370 c3         1 NL4       0.086300
      4 C04          4.8760     1.2080    -1.0940 c          1 NL4       0.610700
      5 O05          3.7830     1.5900    -1.4980 o          1 NL4      -0.591100
      6 C06          4.9670     0.3050     0.1200 ca         1 NL4      -0.145600
      7 C07          6.0330     0.3960     1.0440 ca         1 NL4      -0.071000
      8 C08          6.0750    -0.4480     2.1650 ca         1 NL4      -0.123000
      9 C09          5.0510    -1.3810     2.3890 ca         1 NL4      -0.060000
     10 C10          3.9640    -1.4670     1.4990 ca         1 NL4      -0.125300
     11 C11          2.8520    -2.4860     1.7630 c3         1 NL4       0.137900
     12 N12          1.4920    -2.0250     1.4220 na         1 NL4       0.133800
     13 C13          0.8140    -2.2800     0.2350 cc         1 NL4      -0.122000
     14 C14         -0.3810    -1.6180     0.3680 cd         1 NL4      -0.175000
     15 C15         -1.5290    -1.6040    -0.5780 ca         1 NL4       0.067000
     16 C16         -1.7710    -2.6060    -1.5590 ca         1 NL4       0.062000
     17 Cl1         -0.7860    -4.0650    -1.7380 cl         1 NL4      -0.199000
     18 C18         -2.9040    -2.4830    -2.3970 ca         1 NL4       0.338900
     19 N19         -3.7870    -1.4570    -2.3380 nb         1 NL4      -0.604000
     20 C20         -3.5530    -0.5110    -1.4200 ca         1 NL4       0.479000
     21 N21         -4.3070     0.6230    -1.2110 nc         1 NL4      -0.644700
     22 C22         -3.6440     1.2460    -0.2280 cd         1 NL4       0.540400
     23 C23         -4.0360     2.5050     0.3420 cd         1 NL4      -0.258900
     24 C24         -3.3450     3.1320     1.3450 cc         1 NL4      -0.147000
     25 N25         -4.0880     4.2880     1.5590 na         1 NL4       0.144800
     26 C26         -3.7930     5.3400     2.5420 c3         1 NL4       0.072900
     27 N27         -5.1980     4.4010     0.7410 nc         1 NL4      -0.533800
     28 C28         -5.1510     3.3050     0.0060 cd         1 NL4       0.323300
     29 C29         -6.2120     3.0520    -1.0310 c3         1 NL4      -0.123400
     30 N30         -2.5030     0.5800     0.2120 na         1 NL4      -0.307600
     31 C31         -2.4790    -0.5570    -0.5570 ca         1 NL4      -0.122200
     32 C32         -0.3580    -1.0590     1.6710 cd         1 NL4       0.246900
     33 N33          0.7660    -1.2790     2.3220 nc         1 NL4      -0.520800
     34 C34          3.9280    -0.6190     0.3700 ca         1 NL4      -0.049000
     35 H011         5.5500     2.3300    -3.6480 h1         1 NL4       0.042700
     36 H012         5.3720     3.5660    -2.3660 h1         1 NL4       0.042700
     37 H013         6.9960     3.1200    -2.9510 h1         1 NL4       0.042700
     38 H031         8.0360     1.2300    -1.0450 h1         1 NL4       0.042700
     39 H032         7.0470    -0.2050    -1.4610 h1         1 NL4       0.042700
     40 H033         7.7070     0.8250    -2.7500 h1         1 NL4       0.042700
     41 H07          6.8200     1.1340     0.9140 ha         1 NL4       0.121000
     42 H34          3.0980    -0.6840    -0.3300 ha         1 NL4       0.127000
     43 H08          6.9020    -0.3730     2.8690 ha         1 NL4       0.120000
     44 H09          5.0980    -2.0290     3.2620 ha         1 NL4       0.124000
     45 H111         3.0600    -3.3950     1.1850 h1         1 NL4       0.071200
     46 H112         2.8580    -2.7690     2.8230 h1         1 NL4       0.071200
     47 H13          1.2500    -2.8580    -0.5670 h4         1 NL4       0.166000
     48 H32         -1.1420    -0.5130     2.1790 h4         1 NL4       0.038100
     49 H18         -3.1180    -3.2490    -3.1410 h4         1 NL4       0.034100
     50 H30         -1.8370     0.9120     0.8940 hn         1 NL4       0.362000
     51 H24         -2.4470     2.8850     1.8990 h4         1 NL4       0.151000
     52 H261        -3.6450     6.2950     2.0230 h1         1 NL4       0.059367
     53 H262        -4.6310     5.4330     3.2430 h1         1 NL4       0.059367
     54 H263        -2.8830     5.0850     3.0970 h1         1 NL4       0.059367
     55 H291        -6.7470     2.1190    -0.8210 hc         1 NL4       0.059367
     56 H292        -6.9520     3.8610    -1.0570 hc         1 NL4       0.059367
     57 H293        -5.7700     2.9750    -2.0300 hc         1 NL4       0.059367
@<TRIPOS>BOND
     1     1     2 1   
     2     1    35 1   
     3     1    36 1   
     4     1    37 1   
     5     2     3 1   
     6     2     4 1   
     7     3    38 1   
     8     3    39 1   
     9     3    40 1   
    10     4     5 2   
    11     4     6 1   
    12     6     7 ar  
    13     6    34 ar  
    14     7     8 ar  
    15     7    41 1   
    16     8     9 ar  
    17     8    43 1   
    18     9    10 ar  
    19     9    44 1   
    20    10    11 1   
    21    10    34 ar  
    22    11    12 1   
    23    11    45 1   
    24    11    46 1   
    25    12    13 1   
    26    12    33 1   
    27    13    14 2   
    28    13    47 1   
    29    14    15 1   
    30    14    32 1   
    31    15    16 ar  
    32    15    31 ar  
    33    16    17 1   
    34    16    18 ar  
    35    18    19 ar  
    36    18    49 1   
    37    19    20 ar  
    38    20    21 1   
    39    20    31 ar  
    40    21    22 2   
    41    22    23 1   
    42    22    30 1   
    43    23    24 2   
    44    23    28 1   
    45    24    25 1   
    46    24    51 1   
    47    25    26 1   
    48    25    27 1   
    49    26    52 1   
    50    26    53 1   
    51    26    54 1   
    52    27    28 2   
    53    28    29 1   
    54    29    55 1   
    55    29    56 1   
    56    29    57 1   
    57    30    31 1   
    58    30    50 1   
    59    32    33 2   
    60    32    48 1   
    61    34    42 1   
@<TRIPOS>SUBSTRUCTURE
     1 NL4         1 TEMP              0 ****  ****    0 ROOT
