@<TRIPOS>MOLECULE
NL5
   40    41     1     0     0
SMALL
No Charge or Current Charge


@<TRIPOS>ATOM
      1 C13          2.1350   -20.4370    -6.1180 ca         1 NL5      -0.247500
      2 C15          4.4920   -19.9240    -6.4730 ca         1 NL5      -0.126500
      3 C17          2.7910   -18.3050    -7.1060 ca         1 NL5      -0.126500
      4 C01         -1.5260   -20.2160   -12.6800 c3         1 NL5      -0.106600
      5 C02         -1.0100   -19.5800   -11.3760 c3         1 NL5       0.170300
      6 C03         -0.6870   -18.0770   -11.5450 c3         1 NL5      -0.106600
      7 C06          1.8690   -20.9700    -9.4870 cc         1 NL5      -0.171300
      8 C07          1.9240   -22.1560    -8.8080 cd         1 NL5       0.204300
      9 C08          0.8190   -22.8850    -8.0790 c3         1 NL5      -0.060700
     10 C09          1.0620   -23.0690    -6.5530 c3         1 NL5      -0.284400
     11 C14          3.4930   -20.8020    -6.0190 ca         1 NL5      -0.015000
     12 C16          4.1430   -18.6770    -7.0200 ca         1 NL5      -0.050000
     13 C18          1.7870   -19.1780    -6.6540 ca         1 NL5      -0.015000
     14 N19          3.2010   -22.6740    -8.9010 nd         1 NL5      -0.361000
     15 N20          3.9510   -21.8600    -9.5940 nc         1 NL5      -0.190800
     16 N21          3.1530   -20.8160    -9.9570 na         1 NL5      -0.001200
     17 O04          0.1900   -20.2950   -11.0190 os         1 NL5      -0.455000
     18 O11         -0.4630   -21.0080    -5.8620 o          1 NL5      -0.530000
     19 O12          1.1910   -21.9710    -4.1720 o          1 NL5      -0.530000
     20 S10          0.8550   -21.5740    -5.5460 sy         1 NL5       1.035500
     21 H151         5.5390   -20.2110    -6.4030 ha         1 NL5       0.116500
     22 H171         2.5210   -17.3380    -7.5230 ha         1 NL5       0.116500
     23 H012        -1.7350   -21.2810   -12.5310 hc         1 NL5       0.043700
     24 H011        -2.4540   -19.7290   -13.0030 hc         1 NL5       0.043700
     25 H013        -0.7860   -20.1150   -13.4830 hc         1 NL5       0.043700
     26 H021        -1.7790   -19.7020   -10.6010 h1         1 NL5       0.040700
     27 H032        -0.4640   -17.6070   -10.5800 hc         1 NL5       0.043700
     28 H033         0.1700   -17.9340   -12.2130 hc         1 NL5       0.043700
     29 H031        -1.5470   -17.5500   -11.9750 hc         1 NL5       0.043700
     30 H051         1.1110   -18.9860    -9.6560 h1         1 NL5       0.043200
     31 H052        -0.0270   -20.1480    -8.9370 h1         1 NL5       0.043200
     32 H082        -0.1460   -22.3900    -8.2440 hc         1 NL5       0.072700
     33 H081         0.7150   -23.8800    -8.5280 hc         1 NL5       0.072700
     34 H091         0.3420   -23.7900    -6.1540 h1         1 NL5       0.106200
     35 H092         2.0720   -23.4510    -6.3670 h1         1 NL5       0.106200
     36 H141         3.7780   -21.7660    -5.6000 ha         1 NL5       0.130000
     37 H161         4.9180   -18.0000    -7.3710 ha         1 NL5       0.116000
     38 H181         0.7440   -18.8720    -6.7250 ha         1 NL5       0.130000
     39 H211         3.5140   -20.0510   -10.5180 hn         1 NL5       0.377000
     40 C05          0.7340   -20.0140    -9.7170 c3         1 NL5       0.232900
@<TRIPOS>BOND
     1     1    11 ar  
     2     1    13 ar  
     3     1    20 1   
     4     2    11 ar  
     5     2    12 ar  
     6     2    21 1   
     7     3    12 ar  
     8     3    13 ar  
     9     3    22 1   
    10     4     5 1   
    11     4    23 1   
    12     4    24 1   
    13     4    25 1   
    14     5     6 1   
    15     5    17 1   
    16     5    26 1   
    17     6    27 1   
    18     6    28 1   
    19     6    29 1   
    20     7     8 2   
    21     7    16 1   
    22     7    40 1   
    23     8     9 1   
    24     8    14 1   
    25     9    10 1   
    26     9    32 1   
    27     9    33 1   
    28    10    20 1   
    29    10    34 1   
    30    10    35 1   
    31    11    36 1   
    32    12    37 1   
    33    13    38 1   
    34    14    15 2   
    35    15    16 1   
    36    16    39 1   
    37    17    40 1   
    38    18    20 2   
    39    19    20 2   
    40    30    40 1   
    41    31    40 1   
@<TRIPOS>SUBSTRUCTURE
     1 NL5         1 TEMP              0 ****  ****    0 ROOT
