@<TRIPOS>MOLECULE
NL5
   40    41     1     0     0
SMALL
abcg2


@<TRIPOS>ATOM
      1 C13          2.3460   -20.5860    -6.0370 ca         1 NL5      -0.247500
      2 C15          4.6350   -20.5060    -5.3530 ca         1 NL5      -0.126500
      3 C17          3.6700   -18.6760    -6.5860 ca         1 NL5      -0.126500
      4 C01         -2.0960   -20.8960   -11.9340 c3         1 NL5      -0.106600
      5 C02         -1.3030   -19.7710   -11.2980 c3         1 NL5       0.170300
      6 C03         -1.2740   -18.5330   -12.1820 c3         1 NL5      -0.106600
      7 C06          1.9470   -20.2990    -9.7500 cc         1 NL5      -0.171300
      8 C07          2.0420   -21.5210    -9.1300 cd         1 NL5       0.204300
      9 C08          0.9540   -22.4350    -8.6860 c3         1 NL5      -0.060700
     10 C09          1.0250   -22.8200    -7.2170 c3         1 NL5      -0.284400
     11 C14          3.4220   -21.1750    -5.3870 ca         1 NL5      -0.015000
     12 C16          4.7590   -19.2600    -5.9540 ca         1 NL5      -0.050000
     13 C18          2.4520   -19.3370    -6.6290 ca         1 NL5      -0.015000
     14 N19          3.3520   -21.7950    -8.9450 nd         1 NL5      -0.361000
     15 N20          4.0610   -20.8200    -9.4020 nc         1 NL5      -0.190800
     16 N21          3.2290   -19.9250    -9.8930 na         1 NL5      -0.001200
     17 O04          0.0020   -20.2770   -11.0510 os         1 NL5      -0.455000
     18 O11         -0.2190   -20.5490    -6.6190 o          1 NL5      -0.530000
     19 O12          0.5850   -22.0360    -4.7510 o          1 NL5      -0.530000
     20 S10          0.7970   -21.4510    -6.0760 sy         1 NL5       1.035500
     21 H151         5.4820   -20.9560    -4.8530 ha         1 NL5       0.116500
     22 H171         3.7670   -17.7020    -7.0470 ha         1 NL5       0.116500
     23 H012        -2.1340   -21.7720   -11.2860 hc         1 NL5       0.043700
     24 H011        -3.1200   -20.5720   -12.1220 hc         1 NL5       0.043700
     25 H013        -1.6580   -21.1900   -12.8900 hc         1 NL5       0.043700
     26 H021        -1.7680   -19.5060   -10.3360 h1         1 NL5       0.040700
     27 H032        -0.7210   -17.7100   -11.7270 hc         1 NL5       0.043700
     28 H033        -0.8200   -18.7580   -13.1490 hc         1 NL5       0.043700
     29 H031        -2.2890   -18.1780   -12.3620 hc         1 NL5       0.043700
     30 H051         1.1090   -18.5580   -10.6380 h1         1 NL5       0.043200
     31 H052         0.1870   -19.2150    -9.2890 h1         1 NL5       0.043200
     32 H082        -0.0160   -21.9920    -8.9090 hc         1 NL5       0.072700
     33 H081         0.9960   -23.3670    -9.2540 hc         1 NL5       0.072700
     34 H091         0.2200   -23.5150    -6.9650 h1         1 NL5       0.106200
     35 H092         1.9720   -23.2950    -6.9570 h1         1 NL5       0.106200
     36 H141         3.3270   -22.1440    -4.9120 ha         1 NL5       0.130000
     37 H161         5.7080   -18.7410    -5.9280 ha         1 NL5       0.116000
     38 H181         1.6010   -18.8810    -7.1150 ha         1 NL5       0.130000
     39 H211         3.5890   -19.0750   -10.3020 hn         1 NL5       0.377000
     40 C05          0.7720   -19.4940   -10.1770 c3         1 NL5       0.232900
@<TRIPOS>BOND
     1     1    11 ar  
     2     1    13 ar  
     3     1    20 1   
     4     2    11 ar  
     5     2    12 ar  
     6     2    21 1   
     7     3    12 ar  
     8     3    13 ar  
     9     3    22 1   
    10     4     5 1   
    11     4    23 1   
    12     4    24 1   
    13     4    25 1   
    14     5     6 1   
    15     5    17 1   
    16     5    26 1   
    17     6    27 1   
    18     6    28 1   
    19     6    29 1   
    20     7     8 2   
    21     7    16 1   
    22     7    40 1   
    23     8     9 1   
    24     8    14 1   
    25     9    10 1   
    26     9    32 1   
    27     9    33 1   
    28    10    20 1   
    29    10    34 1   
    30    10    35 1   
    31    11    36 1   
    32    12    37 1   
    33    13    38 1   
    34    14    15 2   
    35    15    16 1   
    36    16    39 1   
    37    17    40 1   
    38    18    20 2   
    39    19    20 2   
    40    30    40 1   
    41    31    40 1   
@<TRIPOS>SUBSTRUCTURE
     1 NL5         1 TEMP              0 ****  ****    0 ROOT
