@<TRIPOS>MOLECULE
NL7
   33    34     1     0     0
SMALL
abcg2


@<TRIPOS>ATOM
      1 C13         -0.4130    -0.6410     1.0570 ca         1 NL7      -0.055500
      2 C15         -2.2650     0.3170    -0.1370 ca         1 NL7      -0.159500
      3 C20         -2.1080    -0.6140    -1.1540 ca         1 NL7      -0.046000
      4 C21         -1.0990    -1.5620    -1.0750 ca         1 NL7      -0.055500
      5 C22          2.4490     0.4800    -0.7430 ca         1 NL7      -0.135000
      6 C01          3.0080     4.0390    -0.2850 c3         1 NL7       0.148900
      7 C03          2.9180     1.6730    -0.1980 ca         1 NL7       0.110100
      8 C04          3.6930     1.6040     0.9590 ca         1 NL7       0.245900
      9 C06          3.5890    -0.6830     1.0090 ca         1 NL7       0.321900
     10 C07          2.7930    -0.7130    -0.1340 ca         1 NL7       0.225000
     11 C12         -0.2620    -1.5660     0.0310 ca         1 NL7      -0.298500
     12 C14         -1.4210     0.3030     0.9670 ca         1 NL7      -0.046000
     13 N05          4.0110     0.4510     1.5360 nb         1 NL7      -0.639000
     14 N08          2.3520    -1.9500    -0.6600 nu         1 NL7      -0.871100
     15 O10          1.4560    -2.8840     1.4910 o          1 NL7      -0.545000
     16 O11          0.7720    -3.8690    -0.7250 o          1 NL7      -0.545000
     17 O17         -4.4760     1.1250    -1.2670 o          1 NL7      -0.685867
     18 O18         -4.1000     1.6690     1.1060 o          1 NL7      -0.685867
     19 S09          1.0790    -2.7160     0.1010 sy         1 NL7       1.143600
     20 S16         -3.5260     1.5910    -0.2460 s6         1 NL7       1.256100
     21 H131         0.2380    -0.6510     1.9200 ha         1 NL7       0.118000
     22 H201        -2.7720    -0.6140    -2.0060 ha         1 NL7       0.135500
     23 H211        -0.9830    -2.2880    -1.8690 ha         1 NL7       0.118000
     24 H221         1.8260     0.4960    -1.6290 ha         1 NL7       0.143000
     25 H012         4.0980     4.1110    -0.2570 h1         1 NL7       0.042700
     26 H013         2.6210     4.8140    -0.9410 h1         1 NL7       0.042700
     27 H011         2.6140     4.1990     0.7220 h1         1 NL7       0.042700
     28 H041         4.0760     2.4980     1.4370 h4         1 NL7       0.019100
     29 H061         3.8890    -1.6040     1.4960 h4         1 NL7       0.044100
     30 H141        -1.5480     1.0180     1.7690 ha         1 NL7       0.135500
     31 H081         2.2340    -1.9560    -1.6690 hn         1 NL7       0.484000
     32 O1          -2.7820     2.7980    -0.6370 o          1 NL7      -0.685867
     33 O02          2.5750     2.8040    -0.8280 os         1 NL7      -0.322100
@<TRIPOS>BOND
     1     1    11 ar  
     2     1    12 ar  
     3     1    21 1   
     4     2     3 ar  
     5     2    12 ar  
     6     2    20 1   
     7     3     4 ar  
     8     3    22 1   
     9     4    11 ar  
    10     4    23 1   
    11     5     7 ar  
    12     5    10 ar  
    13     5    24 1   
    14     6    25 1   
    15     6    26 1   
    16     6    27 1   
    17     6    33 1   
    18     7     8 ar  
    19     7    33 1   
    20     8    13 ar  
    21     8    28 1   
    22     9    10 ar  
    23     9    13 ar  
    24     9    29 1   
    25    10    14 1   
    26    11    19 1   
    27    12    30 1   
    28    14    19 1   
    29    14    31 1   
    30    15    19 2   
    31    16    19 2   
    32    17    20 1   
    33    18    20 1   
    34    20    32 1   
@<TRIPOS>SUBSTRUCTURE
     1 NL7         1 TEMP              0 ****  ****    0 ROOT
