@<TRIPOS>MOLECULE
NL7
   33    34     1     0     0
SMALL
No Charge or Current Charge


@<TRIPOS>ATOM
      1 C13         -0.9220    -1.3890     1.2560 ca         1 NL7      -0.055500
      2 C15         -2.8240    -0.1800     0.2990 ca         1 NL7      -0.159500
      3 C20         -2.3270    -0.4570    -0.9930 ca         1 NL7      -0.046000
      4 C21         -1.1370    -1.1870    -1.1610 ca         1 NL7      -0.055500
      5 C22          3.3010     0.7000    -1.0270 ca         1 NL7      -0.135000
      6 C01          4.8130     4.1040    -0.7960 c3         1 NL7       0.148900
      7 C03          3.6910     1.9320    -0.4750 ca         1 NL7       0.110100
      8 C04          3.3640     2.2060     0.8790 ca         1 NL7       0.245900
      9 C06          2.3220     0.1470     1.1200 ca         1 NL7       0.321900
     10 C07          2.6010    -0.2210    -0.2300 ca         1 NL7       0.225000
     11 C12         -0.4260    -1.6550    -0.0380 ca         1 NL7      -0.298500
     12 C14         -2.1120    -0.6590     1.4210 ca         1 NL7      -0.046000
     13 N05          2.6930     1.3340     1.6700 nb         1 NL7      -0.639000
     14 N08          2.2200    -1.4460    -0.8020 nu         1 NL7      -0.871100
     15 O10          1.6360    -3.0370     1.0190 o          1 NL7      -0.545000
     16 O11          0.9820    -3.4630    -1.4270 o          1 NL7      -0.545000
     17 O17         -5.3970    -0.3110     0.5110 o          1 NL7      -0.685867
     18 O18         -4.1930     1.4340     1.8170 o          1 NL7      -0.685867
     19 S09          1.1040    -2.5790    -0.2670 sy         1 NL7       1.143600
     20 S16         -4.4020     0.7730     0.5190 s6         1 NL7       1.256100
     21 H131        -0.3940    -1.7470     2.1370 ha         1 NL7       0.118000
     22 H201        -2.8650    -0.1070    -1.8720 ha         1 NL7       0.135500
     23 H211        -0.7710    -1.3840    -2.1670 ha         1 NL7       0.118000
     24 H221         3.5430     0.4690    -2.0610 ha         1 NL7       0.143000
     25 H012         5.5040     3.9880     0.0490 h1         1 NL7       0.042700
     26 H013         5.3360     4.6530    -1.5900 h1         1 NL7       0.042700
     27 H011         3.9570     4.7100    -0.4720 h1         1 NL7       0.042700
     28 H041         3.6430     3.1450     1.3530 h4         1 NL7       0.019100
     29 H061         1.7900    -0.5280     1.7860 h4         1 NL7       0.044100
     30 H141        -2.4830    -0.4680     2.4260 ha         1 NL7       0.135500
     31 H081         2.3200    -1.5710    -1.8010 hn         1 NL7       0.484000
     32 O1          -4.4080     1.6490    -0.6640 o          1 NL7      -0.685867
     33 O02          4.3780     2.8220    -1.2810 os         1 NL7      -0.322100
@<TRIPOS>BOND
     1     1    11 ar  
     2     1    12 ar  
     3     1    21 1   
     4     2     3 ar  
     5     2    12 ar  
     6     2    20 1   
     7     3     4 ar  
     8     3    22 1   
     9     4    11 ar  
    10     4    23 1   
    11     5     7 ar  
    12     5    10 ar  
    13     5    24 1   
    14     6    25 1   
    15     6    26 1   
    16     6    27 1   
    17     6    33 1   
    18     7     8 ar  
    19     7    33 1   
    20     8    13 ar  
    21     8    28 1   
    22     9    10 ar  
    23     9    13 ar  
    24     9    29 1   
    25    10    14 1   
    26    11    19 1   
    27    12    30 1   
    28    14    19 1   
    29    14    31 1   
    30    15    19 2   
    31    16    19 2   
    32    17    20 1   
    33    18    20 1   
    34    20    32 1   
@<TRIPOS>SUBSTRUCTURE
     1 NL7         1 TEMP              0 ****  ****    0 ROOT
