@<TRIPOS>MOLECULE
NL8
   35    36     1     0     0
SMALL
No Charge or Current Charge


@<TRIPOS>ATOM
      1 C14         31.8430     7.7320    24.2860 ca         1 NL8      -0.132000
      2 C12         31.9390     8.3840    27.9420 c3         1 NL8       0.088300
      3 C13         32.4540     7.9720    25.5340 ca         1 NL8      -0.024000
      4 C15         32.5260     7.0550    23.2620 ca         1 NL8      -0.059500
      5 C16         33.8660     6.6400    23.4430 ca         1 NL8      -0.158600
      6 C19         34.6350     5.9090    22.3630 c          1 NL8       0.617700
      7 O21         35.7970     5.5620    22.5010 o          1 NL8      -0.601100
      8 N20         34.0060     5.6330    21.2000 nt         1 NL8      -0.602000
      9 C17         34.5000     6.9440    24.6660 ca         1 NL8      -0.059500
     10 C18         33.8110     7.6210    25.6860 ca         1 NL8      -0.132000
     11 N11         31.8210     8.8100    26.5270 n          1 NL8      -0.222400
     12 C09         30.8920     9.8440    26.2350 c          1 NL8       0.637700
     13 O10         30.0200    10.1580    27.0410 o          1 NL8      -0.636100
     14 C04         31.0230    10.6440    24.9550 ca         1 NL8      -0.308600
     15 C05         32.2680    10.7830    24.2980 ca         1 NL8       0.018000
     16 C06         32.3650    11.5250    23.1090 ca         1 NL8      -0.265000
     17 C01         31.2330    12.1480    22.5750 ca         1 NL8       0.208100
     18 O07         31.3260    12.8670    21.4250 oh         1 NL8      -0.524100
     19 C02         30.0050    12.0480    23.2340 ca         1 NL8      -0.220000
     20 C03         29.9030    11.3130    24.4200 ca         1 NL8       0.246100
     21 O08         28.7010    11.2590    25.0520 oh         1 NL8      -0.543100
     22 H15         30.8180     8.0490    24.1090 ha         1 NL8       0.129500
     23 H12         32.4010     9.1880    28.5290 h1         1 NL8       0.049367
     24 H13         30.9460     8.1630    28.3520 h1         1 NL8       0.049367
     25 H14         32.5520     7.4790    28.0290 h1         1 NL8       0.049367
     26 H16         32.0010     6.8690    22.3280 ha         1 NL8       0.128500
     27 H21         34.5090     5.1460    20.4740 hn         1 NL8       0.315000
     28 H20         33.0460     5.9070    21.0620 hn         1 NL8       0.315000
     29 H17         35.5410     6.6680    24.8280 ha         1 NL8       0.128500
     30 H18         34.3450     7.8770    26.5990 ha         1 NL8       0.129500
     31 H05         33.1700    10.3310    24.7040 ha         1 NL8       0.121000
     32 H06         33.3290    11.6140    22.6150 ha         1 NL8       0.122000
     33 H07         32.2560    12.8270    21.1190 ho         1 NL8       0.471000
     34 H02         29.1310    12.5470    22.8280 ha         1 NL8       0.148000
     35 H08         28.8920    10.8650    25.9420 ho         1 NL8       0.516000
@<TRIPOS>BOND
     1     1     3 ar  
     2     1     4 ar  
     3     1    22 1   
     4     2    11 1   
     5     2    23 1   
     6     2    24 1   
     7     2    25 1   
     8     3    10 ar  
     9     3    11 1   
    10     4     5 ar  
    11     4    26 1   
    12     5     6 1   
    13     5     9 ar  
    14     6     7 2   
    15     6     8 1   
    16     8    27 1   
    17     8    28 1   
    18     9    10 ar  
    19     9    29 1   
    20    10    30 1   
    21    11    12 1   
    22    12    13 2   
    23    12    14 1   
    24    14    15 ar  
    25    14    20 ar  
    26    15    16 ar  
    27    15    31 1   
    28    16    17 ar  
    29    16    32 1   
    30    17    18 1   
    31    17    19 ar  
    32    18    33 1   
    33    19    20 ar  
    34    19    34 1   
    35    20    21 1   
    36    21    35 1   
@<TRIPOS>SUBSTRUCTURE
     1 NL8         1 TEMP              0 ****  ****    0 ROOT
