@<TRIPOS>MOLECULE
NL8
   35    36     1     0     0
SMALL
bcc


@<TRIPOS>ATOM
      1 C14         31.8190     7.6710    24.2850 ca         1 NL8      -0.150000
      2 C12         31.7380     8.1730    27.7280 c3         1 NL8       0.088300
      3 C13         32.5080     8.1260    25.4030 ca         1 NL8       0.068600
      4 C15         32.4890     6.9770    23.2910 ca         1 NL8      -0.077500
      5 C16         33.8510     6.7110    23.4040 ca         1 NL8      -0.158600
      6 C19         34.6300     5.9930    22.3480 c          1 NL8       0.684700
      7 O21         35.8410     6.1370    22.2560 o          1 NL8      -0.601100
      8 N20         33.9270     5.2040    21.5210 nt         1 NL8      -0.669000
      9 C17         34.5320     7.1620    24.5330 ca         1 NL8      -0.077500
     10 C18         33.8670     7.8560    25.5280 ca         1 NL8      -0.150000
     11 N11         31.8310     8.8320    26.4290 n          1 NL8      -0.382000
     12 C09         30.9870     9.8680    26.1870 c          1 NL8       0.704700
     13 O10         30.1000    10.1390    27.0060 o          1 NL8      -0.636100
     14 C04         31.1350    10.6860    24.9680 ca         1 NL8      -0.308600
     15 C05         32.3450    10.8600    24.2890 ca         1 NL8       0.000000
     16 C06         32.4450    11.6370    23.1560 ca         1 NL8      -0.283000
     17 C01         31.2990    12.2690    22.6600 ca         1 NL8       0.208100
     18 O07         31.3200    13.0190    21.5500 oh         1 NL8      -0.485100
     19 C02         30.0920    12.1510    23.3320 ca         1 NL8      -0.238000
     20 C03         30.0080    11.3930    24.4950 ca         1 NL8       0.246100
     21 O08         28.8300    11.3620    25.1220 oh         1 NL8      -0.504100
     22 H15         30.7590     7.8640    24.1800 ha         1 NL8       0.147500
     23 H12         31.7260     8.9060    28.5310 h1         1 NL8       0.049367
     24 H13         30.8400     7.5560    27.7990 h1         1 NL8       0.049367
     25 H14         32.6050     7.5340    27.8620 h1         1 NL8       0.049367
     26 H16         31.9270     6.6590    22.4230 ha         1 NL8       0.146500
     27 H21         34.4080     4.6820    20.8060 hn         1 NL8       0.315000
     28 H20         32.9660     4.9630    21.6860 hn         1 NL8       0.315000
     29 H17         35.5910     6.9730    24.6360 ha         1 NL8       0.146500
     30 H18         34.4120     8.2100    26.3940 ha         1 NL8       0.147500
     31 H05         33.2460    10.3950    24.6620 ha         1 NL8       0.139000
     32 H06         33.4020    11.7560    22.6630 ha         1 NL8       0.140000
     33 H07         32.2070    13.0470    21.1740 ho         1 NL8       0.432000
     34 H02         29.2130    12.6720    22.9710 ha         1 NL8       0.166000
     35 H08         28.9770    10.9370    25.9950 ho         1 NL8       0.477000
@<TRIPOS>BOND
     1     1     3 ar  
     2     1     4 ar  
     3     1    22 1   
     4     2    11 1   
     5     2    23 1   
     6     2    24 1   
     7     2    25 1   
     8     3    10 ar  
     9     3    11 1   
    10     4     5 ar  
    11     4    26 1   
    12     5     6 1   
    13     5     9 ar  
    14     6     7 2   
    15     6     8 1   
    16     8    27 1   
    17     8    28 1   
    18     9    10 ar  
    19     9    29 1   
    20    10    30 1   
    21    11    12 1   
    22    12    13 2   
    23    12    14 1   
    24    14    15 ar  
    25    14    20 ar  
    26    15    16 ar  
    27    15    31 1   
    28    16    17 ar  
    29    16    32 1   
    30    17    18 1   
    31    17    19 ar  
    32    18    33 1   
    33    19    20 ar  
    34    19    34 1   
    35    20    21 1   
    36    21    35 1   
@<TRIPOS>SUBSTRUCTURE
     1 NL8         1 TEMP              0 ****  ****    0 ROOT
