@<TRIPOS>MOLECULE
NLA
   23    24     1     0     0
SMALL
abcg2


@<TRIPOS>ATOM
      1 C1          -0.1200    -0.2530    -0.6050 ca         1 NLA      -0.022000
      2 C2           0.7020    -0.5230     0.5280 ca         1 NLA       0.038700
      3 C3           2.0620    -0.3980     0.3950 ca         1 NLA      -0.154000
      4 C4           2.6610     0.0010    -0.8180 ca         1 NLA      -0.091000
      5 C5           1.8870     0.2630    -1.9130 ca         1 NLA      -0.150000
      6 C6           0.4800     0.1390    -1.8330 ca         1 NLA      -0.028000
      7 C7          -0.3400     0.4000    -2.9560 ca         1 NLA      -0.124000
      8 C8          -1.7000     0.2810    -2.8770 ca         1 NLA      -0.114000
      9 C9          -2.3010    -0.1030    -1.6610 ca         1 NLA      -0.151000
     10 C10         -1.5320    -0.3560    -0.5570 ca         1 NLA      -0.044000
     11 C11          0.1100    -0.9470     1.8350 c3         1 NLA      -0.198100
     12 C12         -0.5370     0.1940     2.6610 c          1 NLA       0.722000
     13 O1          -0.5460     1.3340     2.1660 o          1 NLA      -0.722500
     14 O2          -0.9950    -0.1500     3.7690 o          1 NLA      -0.722500
     15 H31          2.6980    -0.6100     1.2470 ha         1 NLA       0.104000
     16 H41          3.7380     0.0900    -0.8760 ha         1 NLA       0.089000
     17 H51          2.3380     0.5670    -2.8500 ha         1 NLA       0.090000
     18 H71          0.1290     0.6990    -3.8860 ha         1 NLA       0.091000
     19 H81         -2.3170     0.4830    -3.7430 ha         1 NLA       0.089000
     20 H91         -3.3780    -0.1950    -1.6020 ha         1 NLA       0.097000
     21 H101        -2.0180    -0.6520     0.3630 ha         1 NLA       0.133000
     22 H111         0.8870    -1.4110     2.4490 hc         1 NLA       0.033700
     23 H112        -0.6420    -1.7280     1.6850 hc         1 NLA       0.033700
@<TRIPOS>BOND
     1     1     2 ar  
     2     1     6 ar  
     3     1    10 ar  
     4     2     3 ar  
     5     2    11 1   
     6     3     4 ar  
     7     3    15 1   
     8     4     5 ar  
     9     4    16 1   
    10     5     6 ar  
    11     5    17 1   
    12     6     7 ar  
    13     7     8 ar  
    14     7    18 1   
    15     8     9 ar  
    16     8    19 1   
    17     9    10 ar  
    18     9    20 1   
    19    10    21 1   
    20    11    12 1   
    21    11    22 1   
    22    11    23 1   
    23    12    13 1   
    24    12    14 1   
@<TRIPOS>SUBSTRUCTURE
     1 NLA         1 TEMP              0 ****  ****    0 ROOT
