@<TRIPOS>MOLECULE
NLA
   23    24     1     0     0
SMALL
No Charge or Current Charge


@<TRIPOS>ATOM
      1 C1          -0.1660    -0.2940    -0.5980 ca         1 NLA      -0.022000
      2 C2           0.6850    -0.4950     0.5280 ca         1 NLA       0.038700
      3 C3           2.0710    -0.2690     0.3870 ca         1 NLA      -0.154000
      4 C4           2.6180     0.1430    -0.8360 ca         1 NLA      -0.091000
      5 C5           1.7850     0.3360    -1.9440 ca         1 NLA      -0.150000
      6 C6           0.4010     0.1210    -1.8320 ca         1 NLA      -0.028000
      7 C7          -0.4160     0.3230    -2.9610 ca         1 NLA      -0.124000
      8 C8          -1.8010     0.1190    -2.8810 ca         1 NLA      -0.114000
      9 C9          -2.3740    -0.2860    -1.6680 ca         1 NLA      -0.151000
     10 C10         -1.5670    -0.4910    -0.5350 ca         1 NLA      -0.044000
     11 C11          0.1770    -0.9570     1.9010 c3         1 NLA      -0.198100
     12 C12         -0.3130     0.2550     2.7080 c          1 NLA       0.722000
     13 O1           0.5150     0.8970     3.3360 o          1 NLA      -0.722500
     14 O2          -1.4840     0.5850     2.6040 o          1 NLA      -0.722500
     15 H31          2.7350    -0.4130     1.2360 ha         1 NLA       0.104000
     16 H41          3.6890     0.3110    -0.9250 ha         1 NLA       0.089000
     17 H51          2.2170     0.6540    -2.8900 ha         1 NLA       0.090000
     18 H71          0.0230     0.6400    -3.9050 ha         1 NLA       0.091000
     19 H81         -2.4270     0.2770    -3.7550 ha         1 NLA       0.089000
     20 H91         -3.4490    -0.4420    -1.6020 ha         1 NLA       0.097000
     21 H101        -2.0550    -0.7980     0.3840 ha         1 NLA       0.133000
     22 H111         1.0300    -1.4130     2.4180 hc         1 NLA       0.033700
     23 H112        -0.6310    -1.6800     1.7490 hc         1 NLA       0.033700
@<TRIPOS>BOND
     1     1     2 ar  
     2     1     6 ar  
     3     1    10 ar  
     4     2     3 ar  
     5     2    11 1   
     6     3     4 ar  
     7     3    15 1   
     8     4     5 ar  
     9     4    16 1   
    10     5     6 ar  
    11     5    17 1   
    12     6     7 ar  
    13     7     8 ar  
    14     7    18 1   
    15     8     9 ar  
    16     8    19 1   
    17     9    10 ar  
    18     9    20 1   
    19    10    21 1   
    20    11    12 1   
    21    11    22 1   
    22    11    23 1   
    23    12    13 1   
    24    12    14 1   
@<TRIPOS>SUBSTRUCTURE
     1 NLA         1 TEMP              0 ****  ****    0 ROOT
