@<TRIPOS>MOLECULE
NLB
   35    35     1     0     0
SMALL
No Charge or Current Charge


@<TRIPOS>ATOM
      1 N          -41.9440   106.9110    -3.8480 n8         1 NLB      -0.889800
      2 CA         -42.7540   105.6340    -3.7930 c3         1 NLB       0.012500
      3 CB         -43.6230   105.4790    -5.0710 c3         1 NLB      -0.050400
      4 CG         -44.7010   106.5770    -5.2530 c3         1 NLB      -0.072400
      5 CD         -45.5840   106.3560    -6.5020 c3         1 NLB      -0.081400
      6 CE         -46.6540   107.4500    -6.6790 c3         1 NLB       0.127400
      7 C          -41.9530   104.2890    -3.5060 c          1 NLB       0.903600
      8 O          -40.9610   104.0350    -4.1830 o          1 NLB      -0.840800
      9 O1         -47.4070   107.1370    -7.8630 os         1 NLB      -0.408600
     10 C2         -48.4380   108.0830    -8.2050 c3         1 NLB       0.183700
     11 C3         -49.5520   108.0370    -7.1610 ca         1 NLB      -0.119300
     12 C4         -50.3670   106.8940    -7.0450 ca         1 NLB      -0.112500
     13 C5         -51.3930   106.8470    -6.0850 ca         1 NLB      -0.134000
     14 C6         -51.6110   107.9440    -5.2350 ca         1 NLB      -0.130000
     15 C7         -50.8020   109.0880    -5.3450 ca         1 NLB      -0.134000
     16 C8         -49.7760   109.1350    -6.3050 ca         1 NLB      -0.112500
     17 H1         -41.4320   107.0230    -2.9670 hn         1 NLB       0.324800
     18 H2         -41.2060   106.7990    -4.5510 hn         1 NLB       0.324800
     19 H4         -43.4480   105.7500    -2.9500 h1         1 NLB       0.035700
     20 H5         -44.1290   104.5060    -5.0280 hc         1 NLB       0.038700
     21 H6         -42.9730   105.4520    -5.9540 hc         1 NLB       0.038700
     22 H7         -44.2170   107.5580    -5.3310 hc         1 NLB       0.035700
     23 H8         -45.3400   106.6050    -4.3620 hc         1 NLB       0.035700
     24 H9         -46.0800   105.3800    -6.4260 hc         1 NLB       0.045200
     25 H10        -44.9480   106.3290    -7.3950 hc         1 NLB       0.045200
     26 H11        -46.1670   108.4290    -6.7770 h1         1 NLB       0.022200
     27 H12        -47.3040   107.4690    -5.7940 h1         1 NLB       0.022200
     28 OXT        -42.2790   103.6050    -2.5410 o          1 NLB      -0.840800
     29 H14        -48.0240   109.0980    -8.2750 h1         1 NLB       0.042700
     30 H15        -48.8630   107.8340    -9.1850 h1         1 NLB       0.042700
     31 H16        -50.2010   106.0390    -7.7000 ha         1 NLB       0.134500
     32 H17        -52.0180   105.9600    -6.0000 ha         1 NLB       0.125500
     33 H18        -52.4050   107.9080    -4.4910 ha         1 NLB       0.124000
     34 H19        -50.9690   109.9380    -4.6860 ha         1 NLB       0.125500
     35 H20        -49.1530   110.0250    -6.3820 ha         1 NLB       0.134500
@<TRIPOS>BOND
     1     1     2 1   
     2     1    17 1   
     3     1    18 1   
     4     2     3 1   
     5     2     7 1   
     6     2    19 1   
     7     3     4 1   
     8     3    20 1   
     9     3    21 1   
    10     4     5 1   
    11     4    22 1   
    12     4    23 1   
    13     5     6 1   
    14     5    24 1   
    15     5    25 1   
    16     6     9 1   
    17     6    26 1   
    18     6    27 1   
    19     7     8 1   
    20     7    28 1   
    21     9    10 1   
    22    10    11 1   
    23    10    29 1   
    24    10    30 1   
    25    11    12 ar  
    26    11    16 ar  
    27    12    13 ar  
    28    12    31 1   
    29    13    14 ar  
    30    13    32 1   
    31    14    15 ar  
    32    14    33 1   
    33    15    16 ar  
    34    15    34 1   
    35    16    35 1   
@<TRIPOS>SUBSTRUCTURE
     1 NLB         1 TEMP              0 ****  ****    0 ROOT
