@<TRIPOS>MOLECULE
NLB
   35    35     1     0     0
SMALL
bcc


@<TRIPOS>ATOM
      1 N          -42.0210   106.8120    -3.9390 n8         1 NLB      -0.889800
      2 CA         -42.8130   105.5940    -3.8260 c3         1 NLB       0.012500
      3 CB         -43.7030   105.4300    -5.0610 c3         1 NLB      -0.050400
      4 CG         -44.6860   106.5720    -5.2890 c3         1 NLB      -0.072400
      5 CD         -45.5750   106.3410    -6.5050 c3         1 NLB      -0.081400
      6 CE         -46.5780   107.4610    -6.6880 c3         1 NLB       0.127400
      7 C          -42.0010   104.2910    -3.5930 c          1 NLB       0.903600
      8 O          -40.7610   104.3560    -3.7160 o          1 NLB      -0.840800
      9 O1         -47.3550   107.2120    -7.8400 os         1 NLB      -0.408600
     10 C2         -48.3590   108.1700    -8.0560 c3         1 NLB       0.183700
     11 C3         -49.4920   108.0890    -7.0620 ca         1 NLB      -0.119300
     12 C4         -50.0340   106.8540    -6.7080 ca         1 NLB      -0.112500
     13 C5         -51.0930   106.7780    -5.8160 ca         1 NLB      -0.134000
     14 C6         -51.6290   107.9370    -5.2650 ca         1 NLB      -0.130000
     15 C7         -51.0960   109.1700    -5.6120 ca         1 NLB      -0.134000
     16 C8         -50.0290   109.2420    -6.5000 ca         1 NLB      -0.112500
     17 H1         -41.4970   106.9370    -3.0810 hn         1 NLB       0.324800
     18 H2         -41.3090   106.6540    -4.6430 hn         1 NLB       0.324800
     19 H4         -43.4790   105.7200    -2.9620 h1         1 NLB       0.035700
     20 H5         -44.2610   104.4960    -4.9660 hc         1 NLB       0.038700
     21 H6         -43.0670   105.3170    -5.9490 hc         1 NLB       0.038700
     22 H7         -44.1420   107.5120    -5.4050 hc         1 NLB       0.035700
     23 H8         -45.3110   106.6880    -4.3960 hc         1 NLB       0.035700
     24 H9         -46.1110   105.3920    -6.3960 hc         1 NLB       0.045200
     25 H10        -44.9550   106.2510    -7.4020 hc         1 NLB       0.045200
     26 H11        -46.0550   108.4240    -6.7850 h1         1 NLB       0.022200
     27 H12        -47.2120   107.5340    -5.7940 h1         1 NLB       0.022200
     28 OXT        -42.6710   103.2750    -3.3120 o          1 NLB      -0.840800
     29 H14        -47.9450   109.1880    -8.0570 h1         1 NLB       0.042700
     30 H15        -48.7450   107.9850    -9.0630 h1         1 NLB       0.042700
     31 H16        -49.6240   105.9450    -7.1300 ha         1 NLB       0.134500
     32 H17        -51.5020   105.8120    -5.5490 ha         1 NLB       0.125500
     33 H18        -52.4560   107.8770    -4.5690 ha         1 NLB       0.124000
     34 H19        -51.5020   110.0780    -5.1840 ha         1 NLB       0.125500
     35 H20        -49.6090   110.2080    -6.7560 ha         1 NLB       0.134500
@<TRIPOS>BOND
     1     1     2 1   
     2     1    17 1   
     3     1    18 1   
     4     2     3 1   
     5     2     7 1   
     6     2    19 1   
     7     3     4 1   
     8     3    20 1   
     9     3    21 1   
    10     4     5 1   
    11     4    22 1   
    12     4    23 1   
    13     5     6 1   
    14     5    24 1   
    15     5    25 1   
    16     6     9 1   
    17     6    26 1   
    18     6    27 1   
    19     7     8 1   
    20     7    28 1   
    21     9    10 1   
    22    10    11 1   
    23    10    29 1   
    24    10    30 1   
    25    11    12 ar  
    26    11    16 ar  
    27    12    13 ar  
    28    12    31 1   
    29    13    14 ar  
    30    13    32 1   
    31    14    15 ar  
    32    14    33 1   
    33    15    16 ar  
    34    15    34 1   
    35    16    35 1   
@<TRIPOS>SUBSTRUCTURE
     1 NLB         1 TEMP              0 ****  ****    0 ROOT
