@<TRIPOS>MOLECULE
NLD
   48    49     1     0     0
SMALL
No Charge or Current Charge


@<TRIPOS>ATOM
      1 O19          1.3200    -1.4890     2.7980 o          1 NLD      -0.495000
      2 C15          1.5570    -1.2440     1.6230 c          1 NLD       0.594100
      3 C16          2.8990    -1.5350     0.9490 c3         1 NLD      -0.131400
      4 C17          3.9100    -0.3750     1.1640 c3         1 NLD      -0.151400
      5 C18          5.2500    -0.6550     0.4790 c          1 NLD       0.597100
      6 O14          0.6700    -0.6640     0.7560 os         1 NLD      -0.447100
      7 C13         -0.6330    -0.3180     1.2560 c3         1 NLD       0.170600
      8 C7          -1.4280     0.3320     0.1000 c5         1 NLD      -0.069700
      9 C6          -2.8850     0.7200     0.5380 c5         1 NLD       0.225800
     10 N2          -3.0800     2.0780    -0.0200 n3         1 NLD      -0.715600
     11 C10         -4.2700     2.8020     0.4730 c3         1 NLD       0.155100
     12 C9          -1.7860     2.7370     0.2290 c5         1 NLD       0.156800
     13 C8          -0.8400     1.6930    -0.4080 c5         1 NLD      -0.072400
     14 C2          -3.8400    -0.3090    -0.0610 ca         1 NLD      -0.137300
     15 C1          -4.1580    -0.2990    -1.4360 ca         1 NLD       0.359900
     16 N1          -4.9900    -1.1990    -2.0180 nb         1 NLD      -0.669000
     17 C5          -5.5400    -2.1510    -1.2300 ca         1 NLD       0.336900
     18 C4          -5.2840    -2.2410     0.1480 ca         1 NLD      -0.166000
     19 C3          -4.4220    -1.3060     0.7470 ca         1 NLD      -0.072000
     20 O20          6.0520    -1.4680     0.9160 o          1 NLD      -0.608100
     21 N21          5.4970     0.0930    -0.6510 ns         1 NLD      -0.508900
     22 C22          6.7230     0.0240    -1.4500 c3         1 NLD       0.103000
     23 C23          7.8790     0.8080    -0.8040 c3         1 NLD      -0.111100
     24 H161         3.3150    -2.4600     1.3650 hc         1 NLD       0.088700
     25 H162         2.7380    -1.6360    -0.1310 hc         1 NLD       0.088700
     26 H171         3.4710     0.5490     0.7670 hc         1 NLD       0.070200
     27 H172         4.0870    -0.2630     2.2410 hc         1 NLD       0.070200
     28 H131        -1.1660    -1.2130     1.6030 h1         1 NLD       0.050200
     29 H132        -0.5580     0.3900     2.0920 h1         1 NLD       0.050200
     30 H7          -1.4220    -0.4030    -0.7150 hc         1 NLD       0.079700
     31 H6          -2.9710     0.7410     1.6340 h1         1 NLD       0.029700
     32 H81C         0.2050     1.8520    -0.1200 hc         1 NLD       0.055700
     33 H82C        -0.8830     1.7520    -1.5020 hc         1 NLD       0.055700
     34 H101        -4.2230     2.9380     1.5620 h1         1 NLD       0.034367
     35 H102        -4.3400     3.7920     0.0040 h1         1 NLD       0.034367
     36 H103        -5.1870     2.2470     0.2340 h1         1 NLD       0.034367
     37 H91C        -1.7100     3.7170    -0.2610 h1         1 NLD       0.038200
     38 H92C        -1.5890     2.8650     1.3030 h1         1 NLD       0.038200
     39 H1          -3.7270     0.4490    -2.1010 h4         1 NLD       0.035100
     40 H3          -4.2080    -1.3580     1.8120 ha         1 NLD       0.116000
     41 H5          -6.2040    -2.8630    -1.7190 h4         1 NLD       0.018100
     42 H4          -5.7500    -3.0250     0.7370 ha         1 NLD       0.124000
     43 H231         7.6090     1.8640    -0.6830 hc         1 NLD       0.042033
     44 H232         8.1270     0.3970     0.1820 hc         1 NLD       0.042033
     45 H233         8.7740     0.7520    -1.4340 hc         1 NLD       0.042033
     46 H221         7.0150    -1.0280    -1.5750 h1         1 NLD       0.053700
     47 H222         6.5160     0.4370    -2.4460 h1         1 NLD       0.053700
     48 H21          4.7730     0.7430    -0.9350 hn         1 NLD       0.311500
@<TRIPOS>BOND
     1     1     2 2   
     2     2     3 1   
     3     2     6 1   
     4     3     4 1   
     5     3    24 1   
     6     3    25 1   
     7     4     5 1   
     8     4    26 1   
     9     4    27 1   
    10     5    20 2   
    11     5    21 1   
    12     6     7 1   
    13     7     8 1   
    14     7    28 1   
    15     7    29 1   
    16     8     9 1   
    17     8    13 1   
    18     8    30 1   
    19     9    10 1   
    20     9    14 1   
    21     9    31 1   
    22    10    11 1   
    23    10    12 1   
    24    11    34 1   
    25    11    35 1   
    26    11    36 1   
    27    12    13 1   
    28    12    37 1   
    29    12    38 1   
    30    13    32 1   
    31    13    33 1   
    32    14    15 ar  
    33    14    19 ar  
    34    15    16 ar  
    35    15    39 1   
    36    16    17 ar  
    37    17    18 ar  
    38    17    41 1   
    39    18    19 ar  
    40    18    42 1   
    41    19    40 1   
    42    21    22 1   
    43    21    48 1   
    44    22    23 1   
    45    22    46 1   
    46    22    47 1   
    47    23    43 1   
    48    23    44 1   
    49    23    45 1   
@<TRIPOS>SUBSTRUCTURE
     1 NLD         1 TEMP              0 ****  ****    0 ROOT
