@<TRIPOS>MOLECULE
NLD
   48    49     1     0     0
SMALL
bcc


@<TRIPOS>ATOM
      1 O19          1.5880    -0.3890     1.8690 o          1 NLD      -0.544000
      2 C15          1.5930    -0.1730     0.6830 c          1 NLD       0.643100
      3 C16          2.7970    -0.2650    -0.2140 c3         1 NLD      -0.131400
      4 C17          4.0850    -0.5020     0.5530 c3         1 NLD      -0.151400
      5 C18          5.2640    -0.7000    -0.3790 c          1 NLD       0.664100
      6 O14          0.5100     0.1720    -0.0020 os         1 NLD      -0.423900
      7 C13         -0.7260     0.3020     0.7070 c3         1 NLD       0.147400
      8 C7          -1.7720     0.7710    -0.2790 c5         1 NLD      -0.069700
      9 C6          -3.1620     0.8140     0.3960 c5         1 NLD       0.225800
     10 N2          -3.8050     1.9540    -0.2250 n3         1 NLD      -0.715600
     11 C10         -5.0100     2.3870     0.4400 c3         1 NLD       0.155100
     12 C9          -2.7750     2.9710    -0.3000 c5         1 NLD       0.156800
     13 C8          -1.5570     2.2050    -0.8050 c5         1 NLD      -0.072400
     14 C2          -3.9410    -0.4600     0.2380 ca         1 NLD      -0.202600
     15 C1          -4.5160    -0.8020    -0.9840 ca         1 NLD       0.425200
     16 N1          -5.1890    -1.9250    -1.1970 nb         1 NLD      -0.669000
     17 C5          -5.3200    -2.7740    -0.1820 ca         1 NLD       0.402200
     18 C4          -4.7940    -2.5350     1.0770 ca         1 NLD      -0.249300
     19 C3          -4.0960    -1.3540     1.2870 ca         1 NLD      -0.090000
     20 O20          5.1520    -1.2760    -1.4540 o          1 NLD      -0.608100
     21 N21          6.4350    -0.2370     0.0810 ns         1 NLD      -0.575900
     22 C22          7.6920    -0.3680    -0.6290 c3         1 NLD       0.103000
     23 C23          8.8600    -0.3200     0.3390 c3         1 NLD      -0.111100
     24 H161         2.6250    -1.0720    -0.9310 hc         1 NLD       0.088700
     25 H162         2.8590     0.6510    -0.8090 hc         1 NLD       0.088700
     26 H171         4.2730     0.3180     1.2480 hc         1 NLD       0.070200
     27 H172         3.9990    -1.4060     1.1620 hc         1 NLD       0.070200
     28 H131        -1.0060    -0.6610     1.1440 h1         1 NLD       0.050200
     29 H132        -0.6190     1.0230     1.5230 h1         1 NLD       0.050200
     30 H7          -1.8000     0.0670    -1.1150 hc         1 NLD       0.079700
     31 H6          -3.0200     0.9920     1.4810 h1         1 NLD       0.029700
     32 H81C        -0.6240     2.6500    -0.4560 hc         1 NLD       0.055700
     33 H82C        -1.5270     2.2070    -1.8940 hc         1 NLD       0.055700
     34 H101        -4.8430     2.6740     1.4900 h1         1 NLD       0.034367
     35 H102        -5.4290     3.2490    -0.0800 h1         1 NLD       0.034367
     36 H103        -5.7610     1.5970     0.4240 h1         1 NLD       0.034367
     37 H91C        -3.0780     3.7870    -0.9590 h1         1 NLD       0.038200
     38 H92C        -2.5660     3.4100     0.6900 h1         1 NLD       0.038200
     39 H1          -4.4280    -0.1210    -1.8240 h4         1 NLD       0.035100
     40 H3          -3.6830    -1.1270     2.2630 ha         1 NLD       0.134000
     41 H5          -5.8730    -3.6860    -0.3800 h4         1 NLD       0.018100
     42 H4          -4.9350    -3.2520     1.8740 ha         1 NLD       0.142000
     43 H231         8.8790     0.6180     0.8960 hc         1 NLD       0.042033
     44 H232         8.8130    -1.1420     1.0540 hc         1 NLD       0.042033
     45 H233         9.8000    -0.3980    -0.2050 hc         1 NLD       0.042033
     46 H221         7.6910    -1.3150    -1.1680 h1         1 NLD       0.053700
     47 H222         7.7910     0.4230    -1.3770 h1         1 NLD       0.053700
     48 H21          6.4380     0.2890     0.9400 hn         1 NLD       0.311500
@<TRIPOS>BOND
     1     1     2 2   
     2     2     3 1   
     3     2     6 1   
     4     3     4 1   
     5     3    24 1   
     6     3    25 1   
     7     4     5 1   
     8     4    26 1   
     9     4    27 1   
    10     5    20 2   
    11     5    21 1   
    12     6     7 1   
    13     7     8 1   
    14     7    28 1   
    15     7    29 1   
    16     8     9 1   
    17     8    13 1   
    18     8    30 1   
    19     9    10 1   
    20     9    14 1   
    21     9    31 1   
    22    10    11 1   
    23    10    12 1   
    24    11    34 1   
    25    11    35 1   
    26    11    36 1   
    27    12    13 1   
    28    12    37 1   
    29    12    38 1   
    30    13    32 1   
    31    13    33 1   
    32    14    15 ar  
    33    14    19 ar  
    34    15    16 ar  
    35    15    39 1   
    36    16    17 ar  
    37    17    18 ar  
    38    17    41 1   
    39    18    19 ar  
    40    18    42 1   
    41    19    40 1   
    42    21    22 1   
    43    21    48 1   
    44    22    23 1   
    45    22    46 1   
    46    22    47 1   
    47    23    43 1   
    48    23    44 1   
    49    23    45 1   
@<TRIPOS>SUBSTRUCTURE
     1 NLD         1 TEMP              0 ****  ****    0 ROOT
