@<TRIPOS>MOLECULE
NLE
   21    20     1     0     0
SMALL
No Charge or Current Charge


@<TRIPOS>ATOM
      1 N           16.6290    39.4110    17.9410 n8         1 NLE      -1.000200
      2 CA          15.8880    40.5600    17.3000 c3         1 NLE       0.013500
      3 C           16.7890    41.6950    16.6560 c          1 NLE       0.691000
      4 O           16.6170    41.9720    15.4770 o          1 NLE      -0.736000
      5 OXT         17.6980    42.1690    17.3260 o          1 NLE      -0.736000
      6 CB          14.8650    41.1850    18.2880 c3         1 NLE      -0.050400
      7 CG          13.7150    40.2370    18.7120 c3         1 NLE      -0.073400
      8 CD          12.6860    40.9140    19.6440 c3         1 NLE      -0.078400
      9 CE          11.5410    39.9740    20.0650 c3         1 NLE      -0.085100
     10 H           17.2570    38.9900    17.2460 hn         1 NLE       0.380000
     11 HN2         17.2790    39.7980    18.6360 hn         1 NLE       0.380000
     12 HA          15.3080    40.1300    16.4710 h1         1 NLE       0.035700
     13 HB2         15.3910    41.5460    19.1810 hc         1 NLE       0.035700
     14 HB3         14.4220    42.0690    17.8110 hc         1 NLE       0.035700
     15 HG2         13.2010    39.8730    17.8140 hc         1 NLE       0.034700
     16 HG3         14.1320    39.3600    19.2210 hc         1 NLE       0.034700
     17 HD2         13.1960    41.2800    20.5440 hc         1 NLE       0.029700
     18 HD3         12.2590    41.7900    19.1400 hc         1 NLE       0.029700
     19 HE1         11.9330    39.1030    20.6050 hc         1 NLE       0.019367
     20 HE2         10.8390    40.4980    20.7240 hc         1 NLE       0.019367
     21 HE3         10.9880    39.6180    19.1870 hc         1 NLE       0.019367
@<TRIPOS>BOND
     1     1     2 1   
     2     1    10 1   
     3     1    11 1   
     4     2     3 1   
     5     2     6 1   
     6     2    12 1   
     7     3     4 1   
     8     3     5 1   
     9     6     7 1   
    10     6    13 1   
    11     6    14 1   
    12     7     8 1   
    13     7    15 1   
    14     7    16 1   
    15     8     9 1   
    16     8    17 1   
    17     8    18 1   
    18     9    19 1   
    19     9    20 1   
    20     9    21 1   
@<TRIPOS>SUBSTRUCTURE
     1 NLE         1 TEMP              0 ****  ****    0 ROOT
