@<TRIPOS>MOLECULE
NLE
   21    20     1     0     0
SMALL
abcg2


@<TRIPOS>ATOM
      1 N           16.5670    39.4700    18.0130 n8         1 NLE      -1.000200
      2 CA          15.8730    40.5360    17.3030 c3         1 NLE       0.013500
      3 C           16.7920    41.6430    16.7250 c          1 NLE       0.691000
      4 O           16.3230    42.3130    15.7810 o          1 NLE      -0.736000
      5 OXT         17.9040    41.7990    17.2710 o          1 NLE      -0.736000
      6 CB          14.8340    41.1860    18.2230 c3         1 NLE      -0.050400
      7 CG          13.7330    40.2420    18.6890 c3         1 NLE      -0.073400
      8 CD          12.7160    40.9160    19.6030 c3         1 NLE      -0.078400
      9 CE          11.6050    39.9750    20.0500 c3         1 NLE      -0.085100
     10 H           17.1430    38.9610    17.3520 hn         1 NLE       0.380000
     11 HN2         17.2340    39.9100    18.6380 hn         1 NLE       0.380000
     12 HA          15.3310    40.0800    16.4670 h1         1 NLE       0.035700
     13 HB2         15.3480    41.6090    19.0950 hc         1 NLE       0.035700
     14 HB3         14.3810    42.0320    17.6970 hc         1 NLE       0.035700
     15 HG2         13.2150    39.8360    17.8130 hc         1 NLE       0.034700
     16 HG3         14.1750    39.3860    19.2050 hc         1 NLE       0.034700
     17 HD2         13.2310    41.3190    20.4800 hc         1 NLE       0.029700
     18 HD3         12.2800    41.7770    19.0870 hc         1 NLE       0.029700
     19 HE1         12.0060    39.1230    20.6020 hc         1 NLE       0.019367
     20 HE2         10.8880    40.4780    20.7000 hc         1 NLE       0.019367
     21 HE3         11.0530    39.5810    19.1940 hc         1 NLE       0.019367
@<TRIPOS>BOND
     1     1     2 1   
     2     1    10 1   
     3     1    11 1   
     4     2     3 1   
     5     2     6 1   
     6     2    12 1   
     7     3     4 1   
     8     3     5 1   
     9     6     7 1   
    10     6    13 1   
    11     6    14 1   
    12     7     8 1   
    13     7    15 1   
    14     7    16 1   
    15     8     9 1   
    16     8    17 1   
    17     8    18 1   
    18     9    19 1   
    19     9    20 1   
    20     9    21 1   
@<TRIPOS>SUBSTRUCTURE
     1 NLE         1 TEMP              0 ****  ****    0 ROOT
