@<TRIPOS>MOLECULE
NLF
   28    29     1     0     0
SMALL
abcg2


@<TRIPOS>ATOM
      1 CE3         63.0080    28.4430    33.2510 ca         1 NLF      -0.033000
      2 CZ3         62.2980    27.8200    34.2590 ca         1 NLF      -0.162000
      3 CH2         61.0040    28.2470    34.6020 ca         1 NLF      -0.097000
      4 CZ2         60.3960    29.2990    33.9420 ca         1 NLF      -0.149000
      5 CE2         61.1170    29.9260    32.9270 ca         1 NLF      -0.048200
      6 CD1         61.8280    31.2300    31.2660 cc         1 NLF      -0.195100
      7 CB          64.1910    30.3320    30.8370 c3         1 NLF      -0.015200
      8 CA          65.3220    30.8710    31.7260 c3         1 NLF      -0.043300
      9 C           66.7070    30.6650    31.0500 c          1 NLF       0.717000
     10 CG          62.8580    30.3650    31.5010 cd         1 NLF      -0.089400
     11 CD2         62.4210    29.5150    32.5700 ca         1 NLF      -0.092800
     12 N           65.0500    32.2460    32.0680 ns         1 NLF      -0.461900
     13 NE1         60.7850    30.9680    32.1130 na         1 NLF      -0.237700
     14 O           66.9910    29.4750    30.8110 o          1 NLF      -0.722500
     15 O23         65.9880    32.2800    34.1420 o          1 NLF      -0.640100
     16 OXT         67.3900    31.6740    30.8110 o          1 NLF      -0.722500
     17 HE3         64.0050    28.1040    32.9930 ha         1 NLF       0.136000
     18 HZ3         62.7400    26.9910    34.7960 ha         1 NLF       0.103000
     19 HH2         60.4710    27.7410    35.3960 ha         1 NLF       0.093000
     20 HZ2         59.3970    29.6230    34.2060 ha         1 NLF       0.097000
     21 HD1         61.7590    32.0280    30.5430 h4         1 NLF       0.201000
     22 HB2         64.4500    29.3100    30.5560 hc         1 NLF       0.055200
     23 HB3         64.1590    30.9090    29.9070 hc         1 NLF       0.055200
     24 HA          65.3230    30.2970    32.6560 h1         1 NLF       0.067700
     25 H221        65.2070    33.9090    33.2060 h5         1 NLF      -0.038800
     26 H           64.7050    32.8520    31.3380 hn         1 NLF       0.289500
     27 HE1         59.9140    31.4720    32.1300 hn         1 NLF       0.334000
     28 C22         65.4450    32.8330    33.1980 c          1 NLF       0.603900
@<TRIPOS>BOND
     1     1     2 ar  
     2     1    11 ar  
     3     1    17 1   
     4     2     3 ar  
     5     2    18 1   
     6     3     4 ar  
     7     3    19 1   
     8     4     5 ar  
     9     4    20 1   
    10     5    11 ar  
    11     5    13 1   
    12     6    10 2   
    13     6    13 1   
    14     6    21 1   
    15     7     8 1   
    16     7    10 1   
    17     7    22 1   
    18     7    23 1   
    19     8     9 1   
    20     8    12 1   
    21     8    24 1   
    22     9    14 1   
    23     9    16 1   
    24    10    11 1   
    25    12    26 1   
    26    12    28 1   
    27    13    27 1   
    28    15    28 2   
    29    25    28 1   
@<TRIPOS>SUBSTRUCTURE
     1 NLF         1 TEMP              0 ****  ****    0 ROOT
