@<TRIPOS>MOLECULE
NLF
   28    29     1     0     0
SMALL
No Charge or Current Charge


@<TRIPOS>ATOM
      1 CE3         63.0400    28.4170    33.1970 ca         1 NLF      -0.033000
      2 CZ3         62.3220    27.7400    34.2070 ca         1 NLF      -0.162000
      3 CH2         61.0410    28.1960    34.6060 ca         1 NLF      -0.097000
      4 CZ2         60.4670    29.3340    33.9990 ca         1 NLF      -0.149000
      5 CE2         61.2040    29.9850    33.0000 ca         1 NLF      -0.048200
      6 CD1         61.9120    31.4120    31.3580 cc         1 NLF      -0.195100
      7 CB          64.1970    30.3410    30.8390 c3         1 NLF      -0.015200
      8 CA          65.4160    30.8320    31.6590 c3         1 NLF      -0.043300
      9 C           66.7480    30.5600    30.8990 c          1 NLF       0.717000
     10 CG          62.8860    30.4450    31.5800 cd         1 NLF      -0.089400
     11 CD2         62.4380    29.5420    32.6160 ca         1 NLF      -0.092800
     12 N           65.3010    32.2700    32.0130 ns         1 NLF      -0.461900
     13 NE1         60.8700    31.1040    32.2600 na         1 NLF      -0.237700
     14 O           67.5320    29.7530    31.3790 o          1 NLF      -0.722500
     15 O23         64.6830    32.0620    34.2150 o          1 NLF      -0.640100
     16 OXT         66.9920    31.2140    29.8920 o          1 NLF      -0.722500
     17 HE3         64.0240    28.0770    32.8820 ha         1 NLF       0.136000
     18 HZ3         62.7550    26.8620    34.6810 ha         1 NLF       0.103000
     19 HH2         60.4970    27.6670    35.3850 ha         1 NLF       0.093000
     20 HZ2         59.4850    29.6930    34.2970 ha         1 NLF       0.097000
     21 HD1         61.8770    32.2490    30.6660 h4         1 NLF       0.201000
     22 HB2         64.3660    29.2970    30.5480 hc         1 NLF       0.055200
     23 HB3         64.1410    30.9100    29.9020 hc         1 NLF       0.055200
     24 HA          65.4590    30.2460    32.5860 h1         1 NLF       0.067700
     25 H221        64.8610    33.8710    33.2480 h5         1 NLF      -0.038800
     26 H           65.4950    32.9550    31.2910 hn         1 NLF       0.289500
     27 HE1         60.0020    31.6220    32.3560 hn         1 NLF       0.334000
     28 C22         64.9170    32.7670    33.2410 c          1 NLF       0.603900
@<TRIPOS>BOND
     1     1     2 ar  
     2     1    11 ar  
     3     1    17 1   
     4     2     3 ar  
     5     2    18 1   
     6     3     4 ar  
     7     3    19 1   
     8     4     5 ar  
     9     4    20 1   
    10     5    11 ar  
    11     5    13 1   
    12     6    10 2   
    13     6    13 1   
    14     6    21 1   
    15     7     8 1   
    16     7    10 1   
    17     7    22 1   
    18     7    23 1   
    19     8     9 1   
    20     8    12 1   
    21     8    24 1   
    22     9    14 1   
    23     9    16 1   
    24    10    11 1   
    25    12    26 1   
    26    12    28 1   
    27    13    27 1   
    28    15    28 2   
    29    25    28 1   
@<TRIPOS>SUBSTRUCTURE
     1 NLF         1 TEMP              0 ****  ****    0 ROOT
