@<TRIPOS>MOLECULE
NLG
   22    21     1     0     0
SMALL
No Charge or Current Charge


@<TRIPOS>ATOM
      1 CA          -0.5660    -0.3760    -0.6550 c3         1 NLG      -0.044300
      2 C           -1.9410    -0.1290    -1.3510 c          1 NLG       0.719000
      3 OXT         -2.2930     1.0240    -1.5630 o          1 NLG      -0.746500
      4 O           -2.5770    -1.1010    -1.7370 o          1 NLG      -0.746500
      5 CB          -0.6250    -0.0100     0.8530 c3         1 NLG      -0.056400
      6 CG           0.6500    -0.3730     1.6590 c3         1 NLG      -0.200400
      7 CD           0.4370    -0.0660     3.1540 c          1 NLG       0.712000
      8 OE1          0.7130     1.0520     3.5610 o          1 NLG      -0.762500
      9 OE2         -0.0480    -0.9380     3.8600 o          1 NLG      -0.762500
     10 C7           1.7600    -0.1330    -1.6670 c          1 NLG       0.596100
     11 C8           2.6760     0.8610    -2.3780 c3         1 NLG      -0.176100
     12 O7           2.1140    -1.2730    -1.3970 o          1 NLG      -0.656100
     13 N2           0.5070     0.3590    -1.3690 ns         1 NLG      -0.433900
     14 HA          -0.3620    -1.4510    -0.7360 h1         1 NLG       0.052700
     15 HBC1        -0.8260     1.0640     0.9570 hc         1 NLG       0.049700
     16 HBC2        -1.4810    -0.5310     1.2990 hc         1 NLG       0.049700
     17 HGC1         0.8050    -1.4480     1.5070 hc         1 NLG       0.009200
     18 HGC2         1.4560     0.2510     1.2550 hc         1 NLG       0.009200
     19 H8C1         3.6620     0.4420    -2.6100 hc         1 NLG       0.031700
     20 H8C2         2.1740     1.2320    -3.2800 hc         1 NLG       0.031700
     21 H8C3         2.7580     1.7710    -1.7720 hc         1 NLG       0.031700
     22 H2           0.3140     1.3100    -1.6630 hn         1 NLG       0.293500
@<TRIPOS>BOND
     1     1     2 1   
     2     1     5 1   
     3     1    13 1   
     4     1    14 1   
     5     2     3 1   
     6     2     4 1   
     7     5     6 1   
     8     5    15 1   
     9     5    16 1   
    10     6     7 1   
    11     6    17 1   
    12     6    18 1   
    13     7     8 1   
    14     7     9 1   
    15    10    11 1   
    16    10    12 2   
    17    10    13 1   
    18    11    19 1   
    19    11    20 1   
    20    11    21 1   
    21    13    22 1   
@<TRIPOS>SUBSTRUCTURE
     1 NLG         1 TEMP              0 ****  ****    0 ROOT
