@<TRIPOS>MOLECULE
NLG
   22    21     1     0     0
SMALL
bcc


@<TRIPOS>ATOM
      1 CA          -0.3850    -0.3590    -0.5620 c3         1 NLG      -0.044300
      2 C           -1.6190    -0.0320    -1.4410 c          1 NLG       0.929600
      3 OXT         -1.5260     0.9000    -2.2570 o          1 NLG      -0.851800
      4 O           -2.6210    -0.7430    -1.2210 o          1 NLG      -0.851800
      5 CB          -0.6460     0.0210     0.8960 c3         1 NLG      -0.056400
      6 CG           0.4580    -0.4180     1.8460 c3         1 NLG      -0.200400
      7 CD           0.2320    -0.0810     3.3300 c          1 NLG       0.922600
      8 OE1         -0.7740     0.5940     3.6290 o          1 NLG      -0.867800
      9 OE2          1.0940    -0.5110     4.1250 o          1 NLG      -0.867800
     10 C7           1.4470    -0.0560    -2.1540 c          1 NLG       0.663100
     11 C8           2.5820     0.8480    -2.5730 c3         1 NLG      -0.176100
     12 O7           1.1540    -1.0550    -2.8030 o          1 NLG      -0.656100
     13 N2           0.8180     0.2930    -1.0260 ns         1 NLG      -0.500900
     14 HA          -0.2230    -1.4400    -0.6080 h1         1 NLG       0.052700
     15 HBC1        -0.7970     1.1030     0.9670 hc         1 NLG       0.049700
     16 HBC2        -1.5900    -0.4360     1.1940 hc         1 NLG       0.049700
     17 HGC1         0.6060    -1.5000     1.7550 hc         1 NLG       0.009200
     18 HGC2         1.4160     0.0210     1.5450 hc         1 NLG       0.009200
     19 H8C1         3.4990     0.2660    -2.6640 hc         1 NLG       0.031700
     20 H8C2         2.3660     1.2690    -3.5550 hc         1 NLG       0.031700
     21 H8C3         2.7640     1.6690    -1.8820 hc         1 NLG       0.031700
     22 H2           1.0520     1.1820    -0.6140 hn         1 NLG       0.293500
@<TRIPOS>BOND
     1     1     2 1   
     2     1     5 1   
     3     1    13 1   
     4     1    14 1   
     5     2     3 1   
     6     2     4 1   
     7     5     6 1   
     8     5    15 1   
     9     5    16 1   
    10     6     7 1   
    11     6    17 1   
    12     6    18 1   
    13     7     8 1   
    14     7     9 1   
    15    10    11 1   
    16    10    12 2   
    17    10    13 1   
    18    11    19 1   
    19    11    20 1   
    20    11    21 1   
    21    13    22 1   
@<TRIPOS>SUBSTRUCTURE
     1 NLG         1 TEMP              0 ****  ****    0 ROOT
