@<TRIPOS>MOLECULE
NLI
   53    54     1     0     0
SMALL
abcg2


@<TRIPOS>ATOM
      1 C01          1.4830    -3.9600    -0.5440 c3         1 NLI      -0.049900
      2 C02          0.5890    -2.7720    -0.4480 cc         1 NLI      -0.023600
      3 C03         -0.7480    -2.8460    -0.6340 cd         1 NLI      -0.030400
      4 N04         -1.5860    -1.7770    -0.5560 nd         1 NLI      -0.619300
      5 C05         -1.0730    -0.6140    -0.3210 cc         1 NLI       0.601200
      6 N06         -1.8240     0.5090    -0.2650 nu         1 NLI      -0.889400
      7 C07         -3.2440     0.5190    -0.4260 c3         1 NLI       0.192800
      8 C08         -4.0020     0.4360     0.8930 c3         1 NLI       0.209300
      9 F09         -3.5880    -0.6580     1.5910 f          1 NLI      -0.114500
     10 F10         -3.6590     1.5100     1.6670 f          1 NLI      -0.114500
     11 C11         -5.4920     0.3980     0.6990 ca         1 NLI      -0.160300
     12 C12         -6.2070     1.5860     0.5730 ca         1 NLI      -0.075500
     13 C13         -7.5740     1.5530     0.3400 ca         1 NLI      -0.116500
     14 C14         -8.2340     0.3360     0.2310 ca         1 NLI      -0.093000
     15 C15         -7.5210    -0.8490     0.3480 ca         1 NLI      -0.116500
     16 C16         -6.1520    -0.8200     0.5810 ca         1 NLI      -0.075500
     17 C17          0.3720    -0.3960    -0.1370 c          1 NLI       0.423700
     18 O18          0.8550     0.7210     0.0300 o          1 NLI      -0.574000
     19 N19          1.1270    -1.5280    -0.1570 n          1 NLI      -0.237000
     20 C20          2.5530    -1.3350    -0.0050 c3         1 NLI      -0.001000
     21 C21          3.1720    -0.8450    -1.3130 c          1 NLI       0.589100
     22 O22          2.6240    -1.0570    -2.3860 o          1 NLI      -0.619100
     23 N23          4.3400    -0.2290    -1.1590 ns         1 NLI      -0.509900
     24 C24          5.1290     0.2420    -2.2750 c3         1 NLI       0.096000
     25 C25          6.0980     1.3070    -1.8110 c3         1 NLI       0.134600
     26 O26          6.9790     0.7210    -0.8550 os         1 NLI      -0.219300
     27 N27          7.2440     1.5630     0.1980 nu         1 NLI      -0.643900
     28 C28          6.5820     1.2330     1.3740 c2         1 NLI       0.777100
     29 N29          5.5610     0.4630     1.3560 n2         1 NLI      -0.895100
     30 N30          7.1460     1.8250     2.4690 nv         1 NLI      -1.070200
     31 HN29         5.1360     0.3880     2.2720 hn         1 NLI       0.393400
     32 H01          1.9770    -4.1880     0.4030 hc         1 NLI       0.053367
     33 H01A         0.8940    -4.8310    -0.8240 hc         1 NLI       0.053367
     34 H4           2.2590    -3.8250    -1.3000 hc         1 NLI       0.053367
     35 H03         -1.2040    -3.8010    -0.8600 h4         1 NLI       0.214000
     36 H6          -1.3480     1.3730    -0.0680 hn         1 NLI       0.524000
     37 H07         -3.5470     1.4380    -0.9320 h1         1 NLI       0.079200
     38 H07A        -3.5510    -0.3130    -1.0620 h1         1 NLI       0.079200
     39 H12         -5.7070     2.5420     0.6550 ha         1 NLI       0.126500
     40 H13         -8.1240     2.4800     0.2450 ha         1 NLI       0.116500
     41 H14         -9.3010     0.3120     0.0530 ha         1 NLI       0.114000
     42 H15         -8.0290    -1.8000     0.2600 ha         1 NLI       0.116500
     43 H16         -5.6110    -1.7530     0.6670 ha         1 NLI       0.126500
     44 H20          2.7440    -0.6350     0.8070 h1         1 NLI       0.080700
     45 H20A         3.0200    -2.2760     0.2760 h1         1 NLI       0.080700
     46 HN23         4.7320    -0.0850    -0.2140 hn         1 NLI       0.375500
     47 H24          5.6720    -0.5820    -2.7510 h1         1 NLI       0.056700
     48 H24A         4.4850     0.6790    -3.0400 h1         1 NLI       0.056700
     49 H25          6.6650     1.6870    -2.6660 h1         1 NLI       0.056200
     50 H25A         5.5550     2.1420    -1.3640 h1         1 NLI       0.056200
     51 HN27         8.2470     1.6730     0.2920 hn         1 NLI       0.476000
     52 HN30         7.6760     2.6690     2.3180 hn         1 NLI       0.468000
     53 HN3A         6.5720     1.8690     3.2950 hn         1 NLI       0.468000
@<TRIPOS>BOND
     1     1     2 1   
     2     1    32 1   
     3     1    33 1   
     4     1    34 1   
     5     2     3 2   
     6     2    19 1   
     7     3     4 1   
     8     3    35 1   
     9     4     5 2   
    10     5     6 1   
    11     5    17 1   
    12     6     7 1   
    13     6    36 1   
    14     7     8 1   
    15     7    37 1   
    16     7    38 1   
    17     8     9 1   
    18     8    10 1   
    19     8    11 1   
    20    11    12 ar  
    21    11    16 ar  
    22    12    13 ar  
    23    12    39 1   
    24    13    14 ar  
    25    13    40 1   
    26    14    15 ar  
    27    14    41 1   
    28    15    16 ar  
    29    15    42 1   
    30    16    43 1   
    31    17    18 2   
    32    17    19 1   
    33    19    20 1   
    34    20    21 1   
    35    20    44 1   
    36    20    45 1   
    37    21    22 2   
    38    21    23 1   
    39    23    24 1   
    40    23    46 1   
    41    24    25 1   
    42    24    47 1   
    43    24    48 1   
    44    25    26 1   
    45    25    49 1   
    46    25    50 1   
    47    26    27 1   
    48    27    28 1   
    49    27    51 1   
    50    28    29 2   
    51    28    30 1   
    52    29    31 1   
    53    30    52 1   
    54    30    53 1   
@<TRIPOS>SUBSTRUCTURE
     1 NLI         1 TEMP              0 ****  ****    0 ROOT
