@<TRIPOS>MOLECULE
NLI
   53    54     1     0     0
SMALL
No Charge or Current Charge


@<TRIPOS>ATOM
      1 C01          1.7010    -3.3360    -0.3370 c3         1 NLI      -0.049900
      2 C02          0.6490    -2.2510    -0.4380 cc         1 NLI      -0.023600
      3 C03         -0.6830    -2.6220    -0.6200 cd         1 NLI      -0.030400
      4 N04         -1.7040    -1.6660    -0.7370 nd         1 NLI      -0.619300
      5 C05         -1.3110    -0.3970    -0.6660 cc         1 NLI       0.601200
      6 N06         -2.3110     0.5560    -0.7910 nu         1 NLI      -0.889400
      7 C07         -3.7840     0.3420    -0.7180 c3         1 NLI       0.192800
      8 C08         -4.3790     0.5540     0.7070 c3         1 NLI       0.209300
      9 F09         -3.7650    -0.2840     1.5780 f          1 NLI      -0.114500
     10 F10         -4.0760     1.8070     1.1280 f          1 NLI      -0.114500
     11 C11         -5.8960     0.3200     0.6990 ca         1 NLI      -0.160300
     12 C12         -6.7940     1.3950     0.5120 ca         1 NLI      -0.075500
     13 C13         -8.1810     1.1690     0.4910 ca         1 NLI      -0.116500
     14 C14         -8.6870    -0.1300     0.6490 ca         1 NLI      -0.093000
     15 C15         -7.8040    -1.2070     0.8260 ca         1 NLI      -0.116500
     16 C16         -6.4160    -0.9850     0.8480 ca         1 NLI      -0.075500
     17 C17          0.0960     0.1180    -0.4700 c          1 NLI       0.423700
     18 O18          0.4000     1.3140    -0.4170 o          1 NLI      -0.574000
     19 N19          1.0500    -0.9080    -0.3470 n          1 NLI      -0.237000
     20 C20          2.4800    -0.5100    -0.1490 c3         1 NLI      -0.001000
     21 C21          3.2860    -0.3200    -1.4470 c          1 NLI       0.589100
     22 O22          2.8170    -0.4660    -2.5690 o          1 NLI      -0.619100
     23 N23          4.6000     0.0280    -1.2560 ns         1 NLI      -0.509900
     24 C24          5.5790     0.2590    -2.3220 c3         1 NLI       0.096000
     25 C25          6.8780     0.8680    -1.7580 c3         1 NLI       0.134600
     26 O26          7.3830    -0.0360    -0.7500 os         1 NLI      -0.219300
     27 N27          7.8370     0.6620     0.4270 nu         1 NLI      -0.643900
     28 C28          6.9760     0.7130     1.4730 c2         1 NLI       0.777100
     29 N29          5.7460     0.4820     1.4150 n2         1 NLI      -0.895100
     30 N30          7.6420     1.1000     2.5430 nv         1 NLI      -1.070200
     31 HN29         5.3640     0.5960     2.3600 hn         1 NLI       0.393400
     32 H01          2.1370    -3.3730     0.6680 hc         1 NLI       0.053367
     33 H01A         1.2780    -4.3270    -0.5420 hc         1 NLI       0.053367
     34 H4           2.5100    -3.1790    -1.0610 hc         1 NLI       0.053367
     35 H03         -0.9840    -3.6670    -0.6840 h4         1 NLI       0.214000
     36 H6          -1.9560     1.5080    -0.6820 hn         1 NLI       0.524000
     37 H07         -4.2880     1.0390    -1.4020 h1         1 NLI       0.079200
     38 H07A        -4.0520    -0.6670    -1.0590 h1         1 NLI       0.079200
     39 H12         -6.4220     2.4090     0.3800 ha         1 NLI       0.126500
     40 H13         -8.8640     2.0040     0.3480 ha         1 NLI       0.116500
     41 H14         -9.7610    -0.3030     0.6310 ha         1 NLI       0.114000
     42 H15         -8.1940    -2.2160     0.9440 ha         1 NLI       0.116500
     43 H16         -5.7460    -1.8330     0.9790 ha         1 NLI       0.126500
     44 H20          2.5340     0.4330     0.4090 h1         1 NLI       0.080700
     45 H20A         3.0040    -1.2510     0.4650 h1         1 NLI       0.080700
     46 HN23         4.9250     0.1240    -0.2900 hn         1 NLI       0.375500
     47 H24          5.8040    -0.6960    -2.8160 h1         1 NLI       0.056700
     48 H24A         5.1510     0.9420    -3.0660 h1         1 NLI       0.056700
     49 H25          7.6130     1.0030    -2.5620 h1         1 NLI       0.056200
     50 H25A         6.6450     1.8550    -1.3360 h1         1 NLI       0.056200
     51 HN27         8.7220     0.2560     0.7200 hn         1 NLI       0.476000
     52 HN30         8.3630     1.7710     2.3120 hn         1 NLI       0.468000
     53 HN3A         7.0490     1.4010     3.3050 hn         1 NLI       0.468000
@<TRIPOS>BOND
     1     1     2 1   
     2     1    32 1   
     3     1    33 1   
     4     1    34 1   
     5     2     3 2   
     6     2    19 1   
     7     3     4 1   
     8     3    35 1   
     9     4     5 2   
    10     5     6 1   
    11     5    17 1   
    12     6     7 1   
    13     6    36 1   
    14     7     8 1   
    15     7    37 1   
    16     7    38 1   
    17     8     9 1   
    18     8    10 1   
    19     8    11 1   
    20    11    12 ar  
    21    11    16 ar  
    22    12    13 ar  
    23    12    39 1   
    24    13    14 ar  
    25    13    40 1   
    26    14    15 ar  
    27    14    41 1   
    28    15    16 ar  
    29    15    42 1   
    30    16    43 1   
    31    17    18 2   
    32    17    19 1   
    33    19    20 1   
    34    20    21 1   
    35    20    44 1   
    36    20    45 1   
    37    21    22 2   
    38    21    23 1   
    39    23    24 1   
    40    23    46 1   
    41    24    25 1   
    42    24    47 1   
    43    24    48 1   
    44    25    26 1   
    45    25    49 1   
    46    25    50 1   
    47    26    27 1   
    48    27    28 1   
    49    27    51 1   
    50    28    29 2   
    51    28    30 1   
    52    29    31 1   
    53    30    52 1   
    54    30    53 1   
@<TRIPOS>SUBSTRUCTURE
     1 NLI         1 TEMP              0 ****  ****    0 ROOT
