@<TRIPOS>MOLECULE
NLJ
   33    34     1     0     0
SMALL
bcc


@<TRIPOS>ATOM
      1 C13         -0.1210    -1.4100     0.1470 ca         1 NLJ      -0.286500
      2 C15          1.4020     0.1880    -0.7680 ca         1 NLJ      -0.067500
      3 C21          1.5230    -0.4120     1.5640 ca         1 NLJ      -0.067500
      4 C22          0.4630    -1.2880     1.3990 ca         1 NLJ      -0.070000
      5 C01         -1.1000     2.1910     1.6610 c3         1 NLJ       0.129700
      6 C03         -2.3410     1.0580    -0.0040 ca         1 NLJ       0.652600
      7 C05         -2.9140     2.1430    -1.9190 ca         1 NLJ       0.449200
      8 C06         -3.5090     1.0230    -2.4610 ca         1 NLJ      -0.297300
      9 C07         -3.5060    -0.1470    -1.7060 ca         1 NLJ      -0.037000
     10 C08         -2.9120    -0.1480    -0.4620 ca         1 NLJ      -0.056700
     11 C14          0.3460    -0.6900    -0.9450 ca         1 NLJ      -0.070000
     12 C16          1.9790     0.3340     0.4860 ca         1 NLJ      -0.170500
     13 N04         -2.3480     2.1630    -0.7130 nb         1 NLJ      -0.740000
     14 N09         -2.8410    -1.3320     0.3100 nu         1 NLJ      -0.663500
     15 O11         -1.7170    -2.7500    -1.4280 o          1 NLJ      -0.623300
     16 O12         -1.6300    -3.3950     1.0060 o          1 NLJ      -0.623300
     17 O18          3.9200     1.2450     1.9790 o          1 NLJ      -0.687200
     18 O19          4.1320     1.4320    -0.4690 o          1 NLJ      -0.687200
     19 S10         -1.5880    -2.3800    -0.0310 sy         1 NLJ       1.284200
     20 S17          3.2590     1.5720     0.7070 s6         1 NLJ       1.256100
     21 H151         1.7700     0.7500    -1.6160 ha         1 NLJ       0.152500
     22 H211         1.9860    -0.3120     2.5370 ha         1 NLJ       0.152500
     23 H221         0.1000    -1.8570     2.2440 ha         1 NLJ       0.135500
     24 H012        -1.7540     3.0620     1.7100 h1         1 NLJ       0.061700
     25 H013        -0.7480     1.9450     2.6600 h1         1 NLJ       0.061700
     26 H011        -0.2410     2.4210     1.0300 h1         1 NLJ       0.061700
     27 H051        -2.8890     3.0750    -2.4730 h4         1 NLJ       0.017100
     28 H061        -3.9640     1.0580    -3.4400 ha         1 NLJ       0.141000
     29 H071        -3.9630    -1.0520    -2.0820 ha         1 NLJ       0.157000
     30 H141        -0.1000    -0.8020    -1.9240 ha         1 NLJ       0.135500
     31 H091        -2.9510    -1.2000     1.3110 hn         1 NLJ       0.436800
     32 O1           2.5190     2.8450     0.7370 o          1 NLJ      -0.687200
     33 O02         -1.7940     1.0360     1.2050 os         1 NLJ      -0.448100
@<TRIPOS>BOND
     1     1     4 ar  
     2     1    11 ar  
     3     1    19 1   
     4     2    11 ar  
     5     2    12 ar  
     6     2    21 1   
     7     3     4 ar  
     8     3    12 ar  
     9     3    22 1   
    10     4    23 1   
    11     5    24 1   
    12     5    25 1   
    13     5    26 1   
    14     5    33 1   
    15     6    10 ar  
    16     6    13 ar  
    17     6    33 1   
    18     7     8 ar  
    19     7    13 ar  
    20     7    27 1   
    21     8     9 ar  
    22     8    28 1   
    23     9    10 ar  
    24     9    29 1   
    25    10    14 1   
    26    11    30 1   
    27    12    20 1   
    28    14    19 1   
    29    14    31 1   
    30    15    19 2   
    31    16    19 2   
    32    17    20 1   
    33    18    20 1   
    34    20    32 1   
@<TRIPOS>SUBSTRUCTURE
     1 NLJ         1 TEMP              0 ****  ****    0 ROOT
