@<TRIPOS>MOLECULE
NLJ
   33    34     1     0     0
SMALL
No Charge or Current Charge


@<TRIPOS>ATOM
      1 C13          0.1250    -1.4740     0.1120 ca         1 NLJ      -0.286500
      2 C15          1.9680    -0.6680    -1.2730 ca         1 NLJ      -0.049500
      3 C21          2.0260    -0.3330     1.1350 ca         1 NLJ      -0.049500
      4 C22          0.7820    -0.9770     1.2560 ca         1 NLJ      -0.052000
      5 C01         -3.6830     2.5790     2.4660 c3         1 NLJ       0.152900
      6 C03         -3.0730     1.4130     0.3810 ca         1 NLJ       0.587300
      7 C05         -2.9590     2.6000    -1.6050 ca         1 NLJ       0.383900
      8 C06         -2.5900     1.4520    -2.3200 ca         1 NLJ      -0.214000
      9 C07         -2.4580     0.2280    -1.6440 ca         1 NLJ      -0.019000
     10 C08         -2.6980     0.1850    -0.2560 ca         1 NLJ       0.147000
     11 C14          0.7240    -1.3130    -1.1550 ca         1 NLJ      -0.052000
     12 C16          2.6350    -0.1780    -0.1290 ca         1 NLJ      -0.170500
     13 N04         -3.2000     2.5910    -0.2780 nb         1 NLJ      -0.740000
     14 N09         -2.5730    -1.0230     0.4770 nu         1 NLJ      -0.857100
     15 O11         -1.8760    -2.9140    -0.9880 o          1 NLJ      -0.552500
     16 O12         -1.5610    -2.9720     1.5590 o          1 NLJ      -0.552500
     17 O18          4.9140     0.3800     1.0010 o          1 NLJ      -0.687200
     18 O19          4.8550     0.0330    -1.4740 o          1 NLJ      -0.687200
     19 S10         -1.4790    -2.2790     0.2710 sy         1 NLJ       1.142600
     20 S17          4.2730     0.6830    -0.2890 s6         1 NLJ       1.256100
     21 H151         2.4130    -0.5490    -2.2590 ha         1 NLJ       0.134500
     22 H211         2.5160     0.0480     2.0290 ha         1 NLJ       0.134500
     23 H221         0.3310    -1.0840     2.2410 ha         1 NLJ       0.117500
     24 H012        -4.6230     2.9930     2.0800 h1         1 NLJ       0.061700
     25 H013        -3.8240     2.3540     3.5310 h1         1 NLJ       0.061700
     26 H011        -2.9050     3.3490     2.3840 h1         1 NLJ       0.061700
     27 H051        -3.0680     3.5590    -2.1120 h4         1 NLJ       0.017100
     28 H061        -2.4120     1.5150    -3.3890 ha         1 NLJ       0.123000
     29 H071        -2.1840    -0.6650    -2.1970 ha         1 NLJ       0.139000
     30 H141         0.2320    -1.6830    -2.0520 ha         1 NLJ       0.117500
     31 H091        -2.7000    -0.9480     1.4800 hn         1 NLJ       0.492000
     32 O1           3.8480     2.0790    -0.4740 o          1 NLJ      -0.687200
     33 O02         -3.3080     1.3870     1.7450 os         1 NLJ      -0.471300
@<TRIPOS>BOND
     1     1     4 ar  
     2     1    11 ar  
     3     1    19 1   
     4     2    11 ar  
     5     2    12 ar  
     6     2    21 1   
     7     3     4 ar  
     8     3    12 ar  
     9     3    22 1   
    10     4    23 1   
    11     5    24 1   
    12     5    25 1   
    13     5    26 1   
    14     5    33 1   
    15     6    10 ar  
    16     6    13 ar  
    17     6    33 1   
    18     7     8 ar  
    19     7    13 ar  
    20     7    27 1   
    21     8     9 ar  
    22     8    28 1   
    23     9    10 ar  
    24     9    29 1   
    25    10    14 1   
    26    11    30 1   
    27    12    20 1   
    28    14    19 1   
    29    14    31 1   
    30    15    19 2   
    31    16    19 2   
    32    17    20 1   
    33    18    20 1   
    34    20    32 1   
@<TRIPOS>SUBSTRUCTURE
     1 NLJ         1 TEMP              0 ****  ****    0 ROOT
