@<TRIPOS>MOLECULE
NLL
   37    39     1     0     0
SMALL
No Charge or Current Charge


@<TRIPOS>ATOM
      1 N1         -15.2650    45.6910   -14.5460 n8         1 NLL      -0.998200
      2 N2         -18.0310    40.4270   -10.0530 na         1 NLL      -0.191400
      3 C3         -15.4160    44.3060   -11.4780 ca         1 NLL      -0.098500
      4 C4         -15.5450    43.1120   -10.7460 ca         1 NLL      -0.094500
      5 C5         -16.5230    42.1610   -11.0960 ca         1 NLL      -0.105300
      6 C6         -16.6450    40.8660   -10.2920 c3         1 NLL       0.133900
      7 C7         -18.7500    39.4580   -10.7870 cc         1 NLL      -0.154100
      8 C9         -20.0350    40.3850    -9.0950 ca         1 NLL      -0.148800
      9 C13        -21.0640    40.7090    -8.2080 ca         1 NLL       0.031000
     10 C15        -17.3660    42.4190   -12.1980 ca         1 NLL      -0.094500
     11 C16        -17.2360    43.6130   -12.9290 ca         1 NLL      -0.098500
     12 C1         -16.1280    45.8610   -13.3620 c3         1 NLL       0.196100
     13 C2         -16.2610    44.5650   -12.5740 ca         1 NLL      -0.080300
     14 C8         -19.9950    39.4410   -10.1840 cd         1 NLL      -0.221200
     15 C10        -18.7990    40.9850    -9.0310 ca         1 NLL       0.383500
     16 N3         -18.4980    41.9200    -8.1060 nb         1 NLL      -0.679000
     17 C11        -19.4760    42.2600    -7.2290 ca         1 NLL       0.378900
     18 C12        -20.7700    41.6890    -7.2360 ca         1 NLL      -0.247600
     19 N4         -21.4970    43.0410    -5.3260 nt         1 NLL      -0.605000
     20 O1         -22.9300    41.6180    -6.2350 o          1 NLL      -0.607100
     21 H1         -15.1280    46.6060   -14.9920 hn         1 NLL       0.396500
     22 H2         -14.3240    45.4300   -14.2300 hn         1 NLL       0.396500
     23 H5         -14.6570    45.0310   -11.1910 ha         1 NLL       0.119500
     24 H6         -14.8830    42.9290    -9.9020 ha         1 NLL       0.114000
     25 H7         -16.1160    40.0680   -10.8280 h1         1 NLL       0.066200
     26 H8         -16.1470    40.9870    -9.3210 h1         1 NLL       0.066200
     27 H9         -18.3390    38.9030   -11.6260 h4         1 NLL       0.216000
     28 H12        -22.0370    40.2250    -8.2720 ha         1 NLL       0.141000
     29 H15        -18.1230    41.6960   -12.4930 ha         1 NLL       0.114000
     30 H16        -17.8930    43.7980   -13.7760 ha         1 NLL       0.119500
     31 H3         -15.6990    46.6440   -12.7210 h1         1 NLL       0.035200
     32 H4         -17.1200    46.2000   -13.6920 h1         1 NLL       0.035200
     33 H10        -20.8220    38.8040   -10.4950 ha         1 NLL       0.212000
     34 H11        -19.1970    43.0190    -6.4990 h4         1 NLL       0.016100
     35 H14        -22.1970    43.3210    -4.6550 hn         1 NLL       0.312000
     36 H13        -20.5790    43.4580    -5.3100 hn         1 NLL       0.312000
     37 C14        -21.8110    42.1010    -6.2430 c          1 NLL       0.625700
@<TRIPOS>BOND
     1     1    12 1   
     2     1    21 1   
     3     1    22 1   
     4     2     6 1   
     5     2     7 1   
     6     2    15 1   
     7     3     4 ar  
     8     3    13 ar  
     9     3    23 1   
    10     4     5 ar  
    11     4    24 1   
    12     5     6 1   
    13     5    10 ar  
    14     6    25 1   
    15     6    26 1   
    16     7    14 2   
    17     7    27 1   
    18     8     9 ar  
    19     8    14 1   
    20     8    15 ar  
    21     9    18 ar  
    22     9    28 1   
    23    10    11 ar  
    24    10    29 1   
    25    11    13 ar  
    26    11    30 1   
    27    12    13 1   
    28    12    31 1   
    29    12    32 1   
    30    14    33 1   
    31    15    16 ar  
    32    16    17 ar  
    33    17    18 ar  
    34    17    34 1   
    35    18    37 1   
    36    19    35 1   
    37    19    36 1   
    38    19    37 1   
    39    20    37 2   
@<TRIPOS>SUBSTRUCTURE
     1 NLL         1 TEMP              0 ****  ****    0 ROOT
