@<TRIPOS>MOLECULE
NLL
   37    39     1     0     0
SMALL
bcc


@<TRIPOS>ATOM
      1 N1         -16.1160    45.8020   -14.3770 n8         1 NLL      -0.887800
      2 N2         -17.9670    40.3270   -10.0600 na         1 NLL      -0.162100
      3 C3         -15.3670    44.1820   -11.2130 ca         1 NLL      -0.116500
      4 C4         -15.5140    42.9530   -10.5800 ca         1 NLL      -0.112500
      5 C5         -16.4770    42.0490   -11.0040 ca         1 NLL      -0.105300
      6 C6         -16.5990    40.7010   -10.3380 c3         1 NLL       0.104600
      7 C7         -18.7050    39.3760   -10.7220 cc         1 NLL      -0.104100
      8 C9         -20.0350    40.2890    -9.1810 ca         1 NLL      -0.214100
      9 C13        -20.9890    40.7310    -8.2760 ca         1 NLL       0.013000
     10 C15        -17.3000    42.4050   -12.0700 ca         1 NLL      -0.112500
     11 C16        -17.1570    43.6340   -12.6940 ca         1 NLL      -0.116500
     12 C1         -16.0520    45.8960   -12.9280 c3         1 NLL       0.196100
     13 C2         -16.1890    44.5450   -12.2720 ca         1 NLL      -0.080300
     14 C8         -19.9700    39.3130   -10.2200 cd         1 NLL      -0.171200
     15 C10        -18.7610    40.9010    -9.1170 ca         1 NLL       0.448800
     16 N3         -18.3920    41.8540    -8.2780 nb         1 NLL      -0.679000
     17 C11        -19.3290    42.2670    -7.4430 ca         1 NLL       0.444200
     18 C12        -20.6360    41.7530    -7.4020 ca         1 NLL      -0.312900
     19 N4         -21.5060    43.4820    -5.9620 nt         1 NLL      -0.672000
     20 O1         -22.5550    41.4880    -6.0450 o          1 NLL      -0.607100
     21 H1         -16.1240    46.7330   -14.7730 hn         1 NLL       0.341300
     22 H2         -15.2750    45.3570   -14.7240 hn         1 NLL       0.341300
     23 H5         -14.6020    44.8680   -10.8680 ha         1 NLL       0.137500
     24 H6         -14.8640    42.6990    -9.7510 ha         1 NLL       0.132000
     25 H7         -16.1770    39.9220   -10.9750 h1         1 NLL       0.066200
     26 H8         -16.0290    40.6910    -9.4070 h1         1 NLL       0.066200
     27 H9         -18.2530    38.8030   -11.5170 h4         1 NLL       0.166000
     28 H12        -21.9840    40.3060    -8.2550 ha         1 NLL       0.159000
     29 H15        -18.0630    41.7210   -12.4220 ha         1 NLL       0.132000
     30 H16        -17.8050    43.8870   -13.5230 ha         1 NLL       0.137500
     31 H3         -15.1390    46.3760   -12.5510 h1         1 NLL       0.035200
     32 H4         -16.8810    46.5300   -12.5990 h1         1 NLL       0.035200
     33 H10        -20.7540    38.6520   -10.5510 ha         1 NLL       0.162000
     34 H11        -19.0210    43.0350    -6.7400 h4         1 NLL       0.016100
     35 H14        -22.1830    43.8530    -5.3150 hn         1 NLL       0.312000
     36 H13        -20.8820    44.1430    -6.3900 hn         1 NLL       0.312000
     37 C14        -21.6510    42.2240    -6.4150 c          1 NLL       0.692700
@<TRIPOS>BOND
     1     1    12 1   
     2     1    21 1   
     3     1    22 1   
     4     2     6 1   
     5     2     7 1   
     6     2    15 1   
     7     3     4 ar  
     8     3    13 ar  
     9     3    23 1   
    10     4     5 ar  
    11     4    24 1   
    12     5     6 1   
    13     5    10 ar  
    14     6    25 1   
    15     6    26 1   
    16     7    14 2   
    17     7    27 1   
    18     8     9 ar  
    19     8    14 1   
    20     8    15 ar  
    21     9    18 ar  
    22     9    28 1   
    23    10    11 ar  
    24    10    29 1   
    25    11    13 ar  
    26    11    30 1   
    27    12    13 1   
    28    12    31 1   
    29    12    32 1   
    30    14    33 1   
    31    15    16 ar  
    32    16    17 ar  
    33    17    18 ar  
    34    17    34 1   
    35    18    37 1   
    36    19    35 1   
    37    19    36 1   
    38    19    37 1   
    39    20    37 2   
@<TRIPOS>SUBSTRUCTURE
     1 NLL         1 TEMP              0 ****  ****    0 ROOT
