@<TRIPOS>MOLECULE
NLM
   29    30     1     0     0
SMALL
abcg2


@<TRIPOS>ATOM
      1 N12         -2.3440    -1.0130     0.1180 nu         1 NLM      -0.889000
      2 C13         -2.5990     0.3120    -0.1760 ca         1 NLM       0.649900
      3 C15         -2.1590     2.1300    -1.4840 ca         1 NLM       0.401900
      4 C17         -3.7640     2.3600     0.2510 ca         1 NLM      -0.037000
      5 C20          0.8980    -1.3070     0.8610 ca         1 NLM      -0.045000
      6 C21          2.1240    -0.7060     1.0960 ca         1 NLM      -0.050500
      7 C05          2.7600    -0.0110     0.0760 ca         1 NLM      -0.160500
      8 C06          2.1760     0.0890    -1.1800 ca         1 NLM      -0.050500
      9 C07          0.9480    -0.5030    -1.4230 ca         1 NLM      -0.045000
     10 C08          0.3230    -1.1960    -0.3970 ca         1 NLM      -0.272500
     11 C16         -3.0620     2.9260    -0.8050 ca         1 NLM      -0.203000
     12 C18         -3.5340     1.0400     0.5740 ca         1 NLM       0.011000
     13 N14         -1.9360     0.8580    -1.1740 nb         1 NLM      -0.716000
     14 O03          4.3940     1.9500    -0.4340 o          1 NLM      -0.687200
     15 O10         -1.2840    -3.2170     0.0650 o          1 NLM      -0.547000
     16 O11         -1.5210    -1.9700    -2.0980 o          1 NLM      -0.547000
     17 S09         -1.2400    -1.9700    -0.6780 sy         1 NLM       1.189600
     18 CL1         -4.3830     0.2910     1.8780 cl         1 NLM      -0.196000
     19 O1           4.4710     0.9240     1.8060 o          1 NLM      -0.687200
     20 H121        -2.7190    -1.4180     0.9660 hn         1 NLM       0.524000
     21 H151        -1.5850     2.5270    -2.3130 h4         1 NLM       0.031100
     22 H171        -4.4830     2.9390     0.8150 ha         1 NLM       0.126000
     23 H201         0.4060    -1.8480     1.6590 ha         1 NLM       0.117000
     24 H211         2.5720    -0.7770     2.0770 ha         1 NLM       0.134000
     25 H061         2.6650     0.6380    -1.9730 ha         1 NLM       0.134000
     26 H071         0.4860    -0.4150    -2.3950 ha         1 NLM       0.117000
     27 H161        -3.2160     3.9570    -1.0870 ha         1 NLM       0.127000
     28 O2           5.3170    -0.3120    -0.1450 o          1 NLM      -0.687200
     29 S02          4.3830     0.7080     0.3540 s6         1 NLM       1.258100
@<TRIPOS>BOND
     1     1     2 1   
     2     1    17 1   
     3     1    20 1   
     4     2    12 ar  
     5     2    13 ar  
     6     3    11 ar  
     7     3    13 ar  
     8     3    21 1   
     9     4    11 ar  
    10     4    12 ar  
    11     4    22 1   
    12     5     6 ar  
    13     5    10 ar  
    14     5    23 1   
    15     6     7 ar  
    16     6    24 1   
    17     7     8 ar  
    18     7    29 1   
    19     8     9 ar  
    20     8    25 1   
    21     9    10 ar  
    22     9    26 1   
    23    10    17 1   
    24    11    27 1   
    25    12    18 1   
    26    14    29 1   
    27    15    17 2   
    28    16    17 2   
    29    19    29 1   
    30    28    29 1   
@<TRIPOS>SUBSTRUCTURE
     1 NLM         1 TEMP              0 ****  ****    0 ROOT
