@<TRIPOS>MOLECULE
NLM
   29    30     1     0     0
SMALL
No Charge or Current Charge


@<TRIPOS>ATOM
      1 N12         -2.6220    -1.2080    -0.3700 nu         1 NLM      -0.889000
      2 C13         -2.5910     0.1480    -0.5110 ca         1 NLM       0.649900
      3 C15         -2.7770     1.9190    -1.9710 ca         1 NLM       0.401900
      4 C17         -2.4070     2.3940     0.3800 ca         1 NLM      -0.037000
      5 C20          0.6740    -1.4520     0.8660 ca         1 NLM      -0.045000
      6 C21          1.8290    -0.7340     1.2230 ca         1 NLM      -0.050500
      7 C05          2.4410     0.1450     0.3040 ca         1 NLM      -0.160500
      8 C06          1.8810     0.2840    -0.9850 ca         1 NLM      -0.050500
      9 C07          0.7260    -0.4320    -1.3450 ca         1 NLM      -0.045000
     10 C08          0.1160    -1.3060    -0.4210 ca         1 NLM      -0.272500
     11 C16         -2.5920     2.8510    -0.9360 ca         1 NLM      -0.203000
     12 C18         -2.4130     1.0080     0.6000 ca         1 NLM       0.011000
     13 N14         -2.7820     0.5830    -1.7660 nb         1 NLM      -0.716000
     14 O03          3.8540     2.3060    -0.0400 o          1 NLM      -0.687200
     15 O10         -1.5530    -3.3590     0.0000 o          1 NLM      -0.547000
     16 O11         -1.5330    -2.2760    -2.3270 o          1 NLM      -0.547000
     17 S09         -1.3860    -2.1940    -0.8710 sy         1 NLM       1.189600
     18 Cl1         -2.1890     0.3810     2.2400 cl         1 NLM      -0.196000
     19 O1           3.8060     1.2520     2.2260 o          1 NLM      -0.687200
     20 H121        -2.7090    -1.4830     0.5950 hn         1 NLM       0.524000
     21 H151        -2.9270     2.2530    -2.9970 h4         1 NLM       0.031100
     22 H171        -2.2660     3.0910     1.2030 ha         1 NLM       0.126000
     23 H201         0.2160    -2.1180     1.5960 ha         1 NLM       0.117000
     24 H211         2.2470    -0.8640     2.2190 ha         1 NLM       0.134000
     25 H061         2.3400     0.9500    -1.7120 ha         1 NLM       0.134000
     26 H071         0.3070    -0.3000    -2.3410 ha         1 NLM       0.117000
     27 H161        -2.5960     3.9150    -1.1580 ha         1 NLM       0.127000
     28 O2           5.0260     0.1460     0.3580 o          1 NLM      -0.687200
     29 S02          3.9720     1.0860     0.7730 s6         1 NLM       1.258100
@<TRIPOS>BOND
     1     1     2 1   
     2     1    17 1   
     3     1    20 1   
     4     2    12 ar  
     5     2    13 ar  
     6     3    11 ar  
     7     3    13 ar  
     8     3    21 1   
     9     4    11 ar  
    10     4    12 ar  
    11     4    22 1   
    12     5     6 ar  
    13     5    10 ar  
    14     5    23 1   
    15     6     7 ar  
    16     6    24 1   
    17     7     8 ar  
    18     7    29 1   
    19     8     9 ar  
    20     8    25 1   
    21     9    10 ar  
    22     9    26 1   
    23    10    17 1   
    24    11    27 1   
    25    12    18 1   
    26    14    29 1   
    27    15    17 2   
    28    16    17 2   
    29    19    29 1   
    30    28    29 1   
@<TRIPOS>SUBSTRUCTURE
     1 NLM         1 TEMP              0 ****  ****    0 ROOT
