@<TRIPOS>MOLECULE
NLN
   23    22     1     0     0
SMALL
bcc


@<TRIPOS>ATOM
      1 N            1.7970    -0.4700    -0.8410 n8         1 NLN      -0.870800
      2 CA           0.3480    -0.5040    -0.8060 c3         1 NLN       0.083500
      3 C           -0.1850     0.0740    -2.1100 c          1 NLN       0.678100
      4 O            0.3730     1.0050    -2.6730 o          1 NLN      -0.598100
      5 CB          -0.3110     0.2580     0.3580 c3         1 NLN      -0.117400
      6 CG           0.1130    -0.2470     1.7310 c3         1 NLN      -0.077400
      7 CD          -0.6100     0.4680     2.8670 c3         1 NLN      -0.075400
      8 CE          -0.1780    -0.0240     4.2410 c3         1 NLN      -0.089100
      9 NH2         -1.3230    -0.4770    -2.5580 nt         1 NLN      -0.677000
     10 H            2.1640    -0.8770     0.0100 hn         1 NLN       0.350300
     11 H2           2.1150     0.4920    -0.8530 hn         1 NLN       0.350300
     12 HA           0.0450    -1.5540    -0.7330 h1         1 NLN       0.061700
     13 HB2         -1.3990     0.1750     0.2690 hc         1 NLN       0.051200
     14 HB3         -0.0730     1.3240     0.2680 hc         1 NLN       0.051200
     15 HG2          1.1920    -0.1170     1.8620 hc         1 NLN       0.037700
     16 HG3         -0.0780    -1.3240     1.8000 hc         1 NLN       0.037700
     17 HD2         -1.6900     0.3340     2.7510 hc         1 NLN       0.039200
     18 HD3         -0.4280     1.5440     2.7880 hc         1 NLN       0.039200
     19 HE1         -0.7010     0.5060     5.0390 hc         1 NLN       0.033367
     20 HE2         -0.3840    -1.0890     4.3620 hc         1 NLN       0.033367
     21 HE3          0.8920     0.1230     4.3930 hc         1 NLN       0.033367
     22 HH21        -1.7980    -0.0920    -3.3590 hn         1 NLN       0.312500
     23 HH22        -1.7710    -1.2360    -2.0750 hn         1 NLN       0.312500
@<TRIPOS>BOND
     1     1     2 1   
     2     1    10 1   
     3     1    11 1   
     4     2     3 1   
     5     2     5 1   
     6     2    12 1   
     7     3     4 2   
     8     3     9 1   
     9     5     6 1   
    10     5    13 1   
    11     5    14 1   
    12     6     7 1   
    13     6    15 1   
    14     6    16 1   
    15     7     8 1   
    16     7    17 1   
    17     7    18 1   
    18     8    19 1   
    19     8    20 1   
    20     8    21 1   
    21     9    22 1   
    22     9    23 1   
@<TRIPOS>SUBSTRUCTURE
     1 NLN         1 TEMP              0 ****  ****    0 ROOT
