@<TRIPOS>MOLECULE
NLN
   23    22     1     0     0
SMALL
No Charge or Current Charge


@<TRIPOS>ATOM
      1 N            1.9300    -0.3490    -0.7750 n8         1 NLN      -0.870800
      2 CA           0.4350    -0.4590    -0.8610 c3         1 NLN       0.083500
      3 C           -0.2080    -0.0410    -2.2410 c          1 NLN       0.678100
      4 O            0.3750     0.6030    -3.1020 o          1 NLN      -0.598100
      5 CB          -0.2250     0.2910     0.3290 c3         1 NLN      -0.117400
      6 CG           0.1330    -0.2750     1.7260 c3         1 NLN      -0.077400
      7 CD          -0.6020     0.4500     2.8750 c3         1 NLN      -0.075400
      8 CE          -0.2490    -0.1100     4.2660 c3         1 NLN      -0.089100
      9 NH2         -1.4850    -0.4360    -2.4590 nt         1 NLN      -0.677000
     10 H            2.2250    -0.5190     0.1910 hn         1 NLN       0.350300
     11 H2           2.2060     0.6210    -0.9600 hn         1 NLN       0.350300
     12 HA           0.1910    -1.5240    -0.7420 h1         1 NLN       0.061700
     13 HB2         -1.3160     0.2460     0.2150 hc         1 NLN       0.051200
     14 HB3          0.0450     1.3540     0.2840 hc         1 NLN       0.051200
     15 HG2          1.2140    -0.1950     1.8940 hc         1 NLN       0.037700
     16 HG3         -0.1180    -1.3430     1.7580 hc         1 NLN       0.037700
     17 HD2         -1.6860     0.3680     2.7230 hc         1 NLN       0.039200
     18 HD3         -0.3550     1.5180     2.8480 hc         1 NLN       0.039200
     19 HE1         -0.7940     0.4340     5.0470 hc         1 NLN       0.033367
     20 HE2         -0.5170    -1.1710     4.3370 hc         1 NLN       0.033367
     21 HE3          0.8250    -0.0100     4.4650 hc         1 NLN       0.033367
     22 HH21        -1.9330    -0.1910    -3.3300 hn         1 NLN       0.312500
     23 HH22        -1.9770    -0.9700    -1.7580 hn         1 NLN       0.312500
@<TRIPOS>BOND
     1     1     2 1   
     2     1    10 1   
     3     1    11 1   
     4     2     3 1   
     5     2     5 1   
     6     2    12 1   
     7     3     4 2   
     8     3     9 1   
     9     5     6 1   
    10     5    13 1   
    11     5    14 1   
    12     6     7 1   
    13     6    15 1   
    14     6    16 1   
    15     7     8 1   
    16     7    17 1   
    17     7    18 1   
    18     8    19 1   
    19     8    20 1   
    20     8    21 1   
    21     9    22 1   
    22     9    23 1   
@<TRIPOS>SUBSTRUCTURE
     1 NLN         1 TEMP              0 ****  ****    0 ROOT
