@<TRIPOS>MOLECULE
NLO
   25    24     1     0     0
SMALL
bcc


@<TRIPOS>ATOM
      1 N           33.7420     5.9740    10.9580 n8         1 NLO      -0.879800
      2 CA          34.9780     5.4810    10.3850 c3         1 NLO       0.116500
      3 C           36.1150     6.4900    10.4770 c          1 NLO       0.594100
      4 O           35.9860     7.6690    10.2540 o          1 NLO      -0.544000
      5 CB          34.7420     5.1070     8.9170 c3         1 NLO      -0.073400
      6 CG          35.9320     4.4660     8.2130 c3         1 NLO      -0.074400
      7 CD          35.6160     4.0100     6.7900 c3         1 NLO      -0.073400
      8 CE          34.6010     2.8770     6.7070 c3         1 NLO      -0.091100
      9 OH          37.2680     5.9320    10.8200 os         1 NLO      -0.415900
     10 C1          38.4160     6.7790    10.8940 c3         1 NLO       0.125700
     11 H           33.8660     6.1870    11.9400 hn         1 NLO       0.354800
     12 H2          33.4740     6.8420    10.5090 hn         1 NLO       0.354800
     13 HA          35.2700     4.5770    10.9270 h1         1 NLO       0.085700
     14 HB2         33.8880     4.4260     8.9110 hc         1 NLO       0.058200
     15 HB3         34.4290     6.0020     8.3680 hc         1 NLO       0.058200
     16 HG2         36.7670     5.1700     8.1670 hc         1 NLO       0.041700
     17 HG3         36.2850     3.6090     8.7970 hc         1 NLO       0.041700
     18 HD2         35.2600     4.8660     6.2070 hc         1 NLO       0.038700
     19 HD3         36.5460     3.6890     6.3140 hc         1 NLO       0.038700
     20 HE1         34.4590     2.5530     5.6750 hc         1 NLO       0.032367
     21 HE2         34.9340     2.0100     7.2810 hc         1 NLO       0.032367
     22 HE3         33.6240     3.1700     7.0910 hc         1 NLO       0.032367
     23 H11         38.6320     7.2420     9.9320 h1         1 NLO       0.048367
     24 H12         39.2440     6.1370    11.1790 h1         1 NLO       0.048367
     25 H13         38.2860     7.5570    11.6460 h1         1 NLO       0.048367
@<TRIPOS>BOND
     1     1     2 1   
     2     1    11 1   
     3     1    12 1   
     4     2     3 1   
     5     2     5 1   
     6     2    13 1   
     7     3     4 2   
     8     3     9 1   
     9     5     6 1   
    10     5    14 1   
    11     5    15 1   
    12     6     7 1   
    13     6    16 1   
    14     6    17 1   
    15     7     8 1   
    16     7    18 1   
    17     7    19 1   
    18     8    20 1   
    19     8    21 1   
    20     8    22 1   
    21     9    10 1   
    22    10    23 1   
    23    10    24 1   
    24    10    25 1   
@<TRIPOS>SUBSTRUCTURE
     1 NLO         1 TEMP              0 ****  ****    0 ROOT
