@<TRIPOS>MOLECULE
NLO
   25    24     1     0     0
SMALL
No Charge or Current Charge


@<TRIPOS>ATOM
      1 N           33.6480     6.0050    10.9960 n8         1 NLO      -0.879800
      2 CA          34.9400     5.5480    10.3810 c3         1 NLO       0.116500
      3 C           36.1240     6.5740    10.4870 c          1 NLO       0.594100
      4 O           35.9700     7.7920    10.5210 o          1 NLO      -0.544000
      5 CB          34.6830     5.0960     8.9180 c3         1 NLO      -0.073400
      6 CG          35.9000     4.4370     8.2190 c3         1 NLO      -0.074400
      7 CD          35.6290     3.9710     6.7680 c3         1 NLO      -0.073400
      8 CE          34.6130     2.8150     6.6460 c3         1 NLO      -0.091100
      9 OH          37.3270     5.9480    10.7080 os         1 NLO      -0.415900
     10 C1          38.4990     6.7660    10.8760 c3         1 NLO       0.125700
     11 H           33.8060     6.2360    11.9830 hn         1 NLO       0.354800
     12 H2          33.3840     6.9040    10.5770 hn         1 NLO       0.354800
     13 HA          35.2660     4.6590    10.9410 h1         1 NLO       0.085700
     14 HB2         33.8470     4.3870     8.9210 hc         1 NLO       0.058200
     15 HB3         34.3590     5.9620     8.3270 hc         1 NLO       0.058200
     16 HG2         36.7310     5.1530     8.1890 hc         1 NLO       0.041700
     17 HG3         36.2440     3.5810     8.8140 hc         1 NLO       0.041700
     18 HD2         35.2820     4.8220     6.1690 hc         1 NLO       0.038700
     19 HD3         36.5780     3.6440     6.3260 hc         1 NLO       0.038700
     20 HE1         34.5450     2.4800     5.6040 hc         1 NLO       0.032367
     21 HE2         34.9200     1.9600     7.2600 hc         1 NLO       0.032367
     22 HE3         33.6120     3.1310     6.9620 hc         1 NLO       0.032367
     23 H11         38.6760     7.3840     9.9860 h1         1 NLO       0.048367
     24 H12         39.3830     6.1370    11.0350 h1         1 NLO       0.048367
     25 H13         38.3930     7.4290    11.7450 h1         1 NLO       0.048367
@<TRIPOS>BOND
     1     1     2 1   
     2     1    11 1   
     3     1    12 1   
     4     2     3 1   
     5     2     5 1   
     6     2    13 1   
     7     3     4 2   
     8     3     9 1   
     9     5     6 1   
    10     5    14 1   
    11     5    15 1   
    12     6     7 1   
    13     6    16 1   
    14     6    17 1   
    15     7     8 1   
    16     7    18 1   
    17     7    19 1   
    18     8    20 1   
    19     8    21 1   
    20     8    22 1   
    21     9    10 1   
    22    10    23 1   
    23    10    24 1   
    24    10    25 1   
@<TRIPOS>SUBSTRUCTURE
     1 NLO         1 TEMP              0 ****  ****    0 ROOT
