@<TRIPOS>MOLECULE
NLP
   22    21     1     0     0
SMALL
No Charge or Current Charge


@<TRIPOS>ATOM
      1 N           -2.3840     0.3120    -1.3400 n8         1 NLP      -0.957200
      2 CA          -1.0500     0.4720    -0.6310 c3         1 NLP      -0.153500
      3 CB          -1.2000    -0.1350     0.7970 c3         1 NLP      -0.046400
      4 CG          -0.0960     0.2630     1.8070 c3         1 NLP      -0.084400
      5 CD          -0.3700    -0.2540     3.2380 c3         1 NLP      -0.071400
      6 CE           0.7290     0.1380     4.2440 c3         1 NLP      -0.080100
      7 P            0.6020    -0.0150    -1.5100 p5         1 NLP       1.299500
      8 O1           0.8690    -1.4710    -1.3090 o          1 NLP      -0.930833
      9 O2           0.4760     0.2610    -2.9740 o          1 NLP      -0.930833
     10 O3           1.7280     0.7960    -0.9580 o          1 NLP      -0.930833
     11 HN1         -3.1460     0.4840    -0.6760 hn         1 NLP       0.347000
     12 HN2         -2.5050    -0.6700    -1.6140 hn         1 NLP       0.347000
     13 HA          -0.9300     1.5540    -0.4920 h1         1 NLP       0.022700
     14 HB1         -1.2410    -1.2290     0.7260 hc         1 NLP      -0.008300
     15 HB2         -2.1640     0.1820     1.2170 hc         1 NLP      -0.008300
     16 HG1         -0.0060     1.3560     1.8320 hc         1 NLP       0.062700
     17 HG2          0.8700    -0.1320     1.4740 hc         1 NLP       0.062700
     18 HD1         -0.4590    -1.3480     3.2180 hc         1 NLP       0.014200
     19 HD2         -1.3310     0.1400     3.5900 hc         1 NLP       0.014200
     20 HE1          0.4890    -0.2500     5.2410 hc         1 NLP       0.011367
     21 HE2          1.6990    -0.2720     3.9400 hc         1 NLP       0.011367
     22 HE3          0.8190     1.2290     4.3140 hc         1 NLP       0.011367
@<TRIPOS>BOND
     1     1     2 1   
     2     1    11 1   
     3     1    12 1   
     4     2     3 1   
     5     2     7 1   
     6     2    13 1   
     7     3     4 1   
     8     3    14 1   
     9     3    15 1   
    10     4     5 1   
    11     4    16 1   
    12     4    17 1   
    13     5     6 1   
    14     5    18 1   
    15     5    19 1   
    16     6    20 1   
    17     6    21 1   
    18     6    22 1   
    19     7     8 1   
    20     7     9 1   
    21     7    10 1   
@<TRIPOS>SUBSTRUCTURE
     1 NLP         1 TEMP              0 ****  ****    0 ROOT
