@<TRIPOS>MOLECULE
NLP
   22    21     1     0     0
SMALL
bcc


@<TRIPOS>ATOM
      1 N           -2.2120     0.3100    -1.3570 n8         1 NLP      -0.846800
      2 CA          -0.9920     0.4990    -0.5670 c3         1 NLP       0.004300
      3 CB          -1.0990    -0.1470     0.8210 c3         1 NLP      -0.046400
      4 CG          -0.1100     0.3600     1.8620 c3         1 NLP      -0.084400
      5 CD          -0.3130    -0.2640     3.2370 c3         1 NLP      -0.071400
      6 CE           0.6820     0.2440     4.2710 c3         1 NLP      -0.080100
      7 P            0.4450    -0.1500    -1.5830 p5         1 NLP       1.141700
      8 O1           0.0320    -1.6010    -1.8960 o          1 NLP      -0.930833
      9 O2           0.5150     0.7490    -2.8250 o          1 NLP      -0.930833
     10 O3           1.6990    -0.0500    -0.7000 o          1 NLP      -0.930833
     11 HN1         -3.0240     0.4000    -0.7560 hn         1 NLP       0.291800
     12 HN2         -2.2150    -0.6500    -1.6830 hn         1 NLP       0.291800
     13 HA          -0.8540     1.5800    -0.4180 h1         1 NLP       0.022700
     14 HB1         -1.0010    -1.2340     0.7120 hc         1 NLP      -0.008300
     15 HB2         -2.1150     0.0230     1.2050 hc         1 NLP      -0.008300
     16 HG1         -0.2080     1.4500     1.9500 hc         1 NLP       0.062700
     17 HG2          0.9030     0.1720     1.5060 hc         1 NLP       0.062700
     18 HD1         -0.2310    -1.3530     3.1570 hc         1 NLP       0.014200
     19 HD2         -1.3330    -0.0640     3.5840 hc         1 NLP       0.014200
     20 HE1          0.5080    -0.2000     5.2530 hc         1 NLP       0.011367
     21 HE2          1.7080     0.0090     3.9800 hc         1 NLP       0.011367
     22 HE3          0.6140     1.3280     4.3840 hc         1 NLP       0.011367
@<TRIPOS>BOND
     1     1     2 1   
     2     1    11 1   
     3     1    12 1   
     4     2     3 1   
     5     2     7 1   
     6     2    13 1   
     7     3     4 1   
     8     3    14 1   
     9     3    15 1   
    10     4     5 1   
    11     4    16 1   
    12     4    17 1   
    13     5     6 1   
    14     5    18 1   
    15     5    19 1   
    16     6    20 1   
    17     6    21 1   
    18     6    22 1   
    19     7     8 1   
    20     7     9 1   
    21     7    10 1   
@<TRIPOS>SUBSTRUCTURE
     1 NLP         1 TEMP              0 ****  ****    0 ROOT
