@<TRIPOS>MOLECULE
NLQ
   24    23     1     0     0
SMALL
bcc


@<TRIPOS>ATOM
      1 OXT         60.3700    25.7820    33.5020 o          1 NLQ      -0.825300
      2 C           60.2200    25.7780    32.2540 c          1 NLQ       0.931600
      3 O           59.9660    26.7560    31.5400 o          1 NLQ      -0.825300
      4 CA          60.4180    24.4070    31.5560 c3         1 NLQ      -0.036300
      5 N           59.6790    24.3010    30.3190 ns         1 NLQ      -0.534900
      6 C6          58.3420    24.1970    30.2850 c          1 NLQ       0.667100
      7 O4          57.6610    24.0990    31.2980 o          1 NLQ      -0.621100
      8 C7          57.7210    24.1730    28.9090 c3         1 NLQ      -0.177100
      9 CB          61.8950    24.1460    31.2320 c3         1 NLQ      -0.062400
     10 CG          62.8680    24.1810    32.4140 c3         1 NLQ      -0.149400
     11 CD          62.5790    23.1110    33.4520 c          1 NLQ       0.661100
     12 NE2         61.6960    23.4770    34.3930 nt         1 NLQ      -0.674000
     13 OE1         63.1190    22.0110    33.4140 o          1 NLQ      -0.679100
     14 HA          60.0590    23.6200    32.2240 h1         1 NLQ       0.061700
     15 H           60.1680    24.4840    29.4570 hn         1 NLQ       0.293500
     16 H71         57.1660    23.2440    28.7790 hc         1 NLQ       0.042700
     17 H72         57.0070    24.9910    28.8170 hc         1 NLQ       0.042700
     18 H73         58.4450    24.2550    28.0990 hc         1 NLQ       0.042700
     19 HB2         62.2310    24.8900    30.5030 hc         1 NLQ       0.028200
     20 HB3         61.9710    23.1740    30.7370 hc         1 NLQ       0.028200
     21 HG2         62.8670    25.1690    32.8740 hc         1 NLQ       0.059700
     22 HG3         63.8730    24.0090    32.0270 hc         1 NLQ       0.059700
     23 HE21        61.3650    22.7880    35.0490 hn         1 NLQ       0.333000
     24 HE22        61.1440    24.3300    34.2460 hn         1 NLQ       0.333000
@<TRIPOS>BOND
     1     1     2 1   
     2     2     3 1   
     3     2     4 1   
     4     4     5 1   
     5     4     9 1   
     6     4    14 1   
     7     5     6 1   
     8     5    15 1   
     9     6     7 2   
    10     6     8 1   
    11     8    16 1   
    12     8    17 1   
    13     8    18 1   
    14     9    10 1   
    15     9    19 1   
    16     9    20 1   
    17    10    11 1   
    18    10    21 1   
    19    10    22 1   
    20    11    12 1   
    21    11    13 2   
    22    12    23 1   
    23    12    24 1   
@<TRIPOS>SUBSTRUCTURE
     1 NLQ         1 TEMP              0 ****  ****    0 ROOT
