@<TRIPOS>MOLECULE
NLQ
   24    23     1     0     0
SMALL
No Charge or Current Charge


@<TRIPOS>ATOM
      1 OXT         60.6190    26.2290    33.4440 o          1 NLQ      -0.720000
      2 C           60.5890    26.1180    32.2260 c          1 NLQ       0.721000
      3 O           60.6260    27.0750    31.4630 o          1 NLQ      -0.720000
      4 CA          60.3750    24.6890    31.6290 c3         1 NLQ      -0.036300
      5 N           59.4150    24.7310    30.5000 ns         1 NLQ      -0.467900
      6 C6          58.6680    23.6680    30.0440 c          1 NLQ       0.600100
      7 O4          58.7060    22.5590    30.5590 o          1 NLQ      -0.621100
      8 C7          57.7780    23.9840    28.8450 c3         1 NLQ      -0.177100
      9 CB          61.7110    24.0140    31.2060 c3         1 NLQ      -0.062400
     10 CG          62.7790    23.8950    32.3260 c3         1 NLQ      -0.149400
     11 CD          62.3070    23.0400    33.5090 c          1 NLQ       0.594100
     12 NE2         61.6890    23.6940    34.5100 nt         1 NLQ      -0.607000
     13 OE1         62.4640    21.8320    33.5690 o          1 NLQ      -0.679100
     14 HA          59.9170    24.0840    32.4220 h1         1 NLQ       0.061700
     15 H           59.3010    25.6110    30.0090 hn         1 NLQ       0.293500
     16 H71         57.1940    23.1190    28.5100 hc         1 NLQ       0.042700
     17 H72         57.1340    24.8350    29.0920 hc         1 NLQ       0.042700
     18 H73         58.3980    24.3900    28.0370 hc         1 NLQ       0.042700
     19 HB2         62.1440    24.5840    30.3740 hc         1 NLQ       0.028200
     20 HB3         61.5010    23.0100    30.8170 hc         1 NLQ       0.028200
     21 HG2         63.0020    24.9100    32.6760 hc         1 NLQ       0.059700
     22 HG3         63.6800    23.4430    31.8970 hc         1 NLQ       0.059700
     23 HE21        61.3490    23.1750    35.3050 hn         1 NLQ       0.333000
     24 HE22        61.4840    24.6820    34.4110 hn         1 NLQ       0.333000
@<TRIPOS>BOND
     1     1     2 1   
     2     2     3 1   
     3     2     4 1   
     4     4     5 1   
     5     4     9 1   
     6     4    14 1   
     7     5     6 1   
     8     5    15 1   
     9     6     7 2   
    10     6     8 1   
    11     8    16 1   
    12     8    17 1   
    13     8    18 1   
    14     9    10 1   
    15     9    19 1   
    16     9    20 1   
    17    10    11 1   
    18    10    21 1   
    19    10    22 1   
    20    11    12 1   
    21    11    13 2   
    22    12    23 1   
    23    12    24 1   
@<TRIPOS>SUBSTRUCTURE
     1 NLQ         1 TEMP              0 ****  ****    0 ROOT
