@<TRIPOS>MOLECULE
NLS
   29    30     1     0     0
SMALL
No Charge or Current Charge


@<TRIPOS>ATOM
      1 N12          2.8560     1.3230     0.2590 nu         1 NLS      -0.892000
      2 C13          2.9110    -0.0260     0.4100 ca         1 NLS       0.667900
      3 C15          3.1200    -1.9810     1.8210 ca         1 NLS      -0.022000
      4 C17          2.9520    -2.0800    -0.5810 ca         1 NLS       0.630200
      5 C20         -0.3100     0.3640    -1.2550 ca         1 NLS      -0.044500
      6 C21         -1.5340    -0.2820    -1.0110 ca         1 NLS      -0.050000
      7 C05         -2.3030     0.0400     0.1290 ca         1 NLS      -0.159500
      8 C06         -1.8140     1.0120     1.0290 ca         1 NLS      -0.050000
      9 C07         -0.5900     1.6600     0.7880 ca         1 NLS      -0.044500
     10 C08          0.1680     1.3420    -0.3580 ca         1 NLS      -0.272500
     11 C14          3.0430    -0.5870     1.6880 ca         1 NLS      -0.235000
     12 C16          3.0700    -2.7430     0.6470 ca         1 NLS      -0.244000
     13 F18          2.9060    -2.7780    -1.7350 f          1 NLS      -0.218200
     14 N19          2.8790    -0.7440    -0.7140 nb         1 NLS      -0.759000
     15 O01         -4.6760     0.2000     1.1890 o          1 NLS      -0.686867
     16 O03         -4.3850    -1.1360    -0.9030 o          1 NLS      -0.686867
     17 O10          1.7520     3.4700    -0.0050 o          1 NLS      -0.547000
     18 O11          2.1840     1.9780    -2.0460 o          1 NLS      -0.547000
     19 S09          1.7480     2.1580    -0.6580 sy         1 NLS       1.188600
     20 H121         2.8760     1.8310     1.1250 hn         1 NLS       0.515000
     21 H151         3.2170    -2.4510     2.7990 ha         1 NLS       0.115000
     22 H201         0.2670     0.0960    -2.1380 ha         1 NLS       0.118000
     23 H211        -1.8840    -1.0380    -1.7110 ha         1 NLS       0.135000
     24 H061        -2.3830     1.2670     1.9210 ha         1 NLS       0.135000
     25 H071        -0.2350     2.4050     1.4980 ha         1 NLS       0.118000
     26 H141         3.0810     0.0480     2.5680 ha         1 NLS       0.126000
     27 H161         3.1240    -3.8270     0.6780 ha         1 NLS       0.140000
     28 O1          -3.4680    -1.9760     1.2540 o          1 NLS      -0.686867
     29 S02         -3.9140    -0.8230     0.4560 s6         1 NLS       1.256100
@<TRIPOS>BOND
     1     1     2 1   
     2     1    19 1   
     3     1    20 1   
     4     2    11 ar  
     5     2    14 ar  
     6     3    11 ar  
     7     3    12 ar  
     8     3    21 1   
     9     4    12 ar  
    10     4    13 1   
    11     4    14 ar  
    12     5     6 ar  
    13     5    10 ar  
    14     5    22 1   
    15     6     7 ar  
    16     6    23 1   
    17     7     8 ar  
    18     7    29 1   
    19     8     9 ar  
    20     8    24 1   
    21     9    10 ar  
    22     9    25 1   
    23    10    19 1   
    24    11    26 1   
    25    12    27 1   
    26    15    29 1   
    27    16    29 1   
    28    17    19 2   
    29    18    19 2   
    30    28    29 1   
@<TRIPOS>SUBSTRUCTURE
     1 NLS         1 TEMP              0 ****  ****    0 ROOT
