@<TRIPOS>MOLECULE
NLS
   29    30     1     0     0
SMALL
bcc


@<TRIPOS>ATOM
      1 N12          2.5870     1.2500     0.6260 nu         1 NLS      -0.836800
      2 C13          2.8730    -0.1010     0.6630 ca         1 NLS       0.733200
      3 C15          3.8840    -1.9830     1.6960 ca         1 NLS      -0.040000
      4 C17          2.6540    -2.1260    -0.2930 ca         1 NLS       0.695500
      5 C20         -0.4030     0.3640    -1.2830 ca         1 NLS      -0.062500
      6 C21         -1.6610    -0.1980    -1.1320 ca         1 NLS      -0.068000
      7 C05         -2.4500     0.1470    -0.0440 ca         1 NLS      -0.159500
      8 C06         -1.9900     1.0610     0.8980 ca         1 NLS      -0.068000
      9 C07         -0.7380     1.6320     0.7520 ca         1 NLS      -0.062500
     10 C08          0.0450     1.2720    -0.3370 ca         1 NLS      -0.272500
     11 C14          3.6330    -0.6240     1.7090 ca         1 NLS      -0.318300
     12 C16          3.3890    -2.7800     0.6720 ca         1 NLS      -0.327300
     13 F18          2.1430    -2.8250    -1.3070 f          1 NLS      -0.218200
     14 N19          2.3940    -0.8470    -0.3200 nb         1 NLS      -0.759000
     15 O01         -4.9000     0.3890     0.8010 o          1 NLS      -0.686867
     16 O03         -4.4790    -1.0720    -1.1380 o          1 NLS      -0.686867
     17 O10          1.5790     3.3820    -0.0340 o          1 NLS      -0.617800
     18 O11          2.1460     1.7340    -1.8370 o          1 NLS      -0.617800
     19 S09          1.6410     2.0110    -0.5090 sy         1 NLS       1.330200
     20 H121         2.8590     1.8250     1.4130 hn         1 NLS       0.459800
     21 H151         4.4690    -2.4280     2.4900 ha         1 NLS       0.133000
     22 H201         0.2130     0.0880    -2.1260 ha         1 NLS       0.136000
     23 H211        -2.0210    -0.8980    -1.8730 ha         1 NLS       0.153000
     24 H061        -2.6080     1.3460     1.7380 ha         1 NLS       0.153000
     25 H071        -0.3890     2.3490     1.4840 ha         1 NLS       0.136000
     26 H141         4.0110     0.0120     2.4980 ha         1 NLS       0.144000
     27 H161         3.5680    -3.8450     0.6300 ha         1 NLS       0.158000
     28 O1          -3.7470    -1.7650     1.1080 o          1 NLS      -0.686867
     29 S02         -4.0430    -0.6450     0.2010 s6         1 NLS       1.256100
@<TRIPOS>BOND
     1     1     2 1   
     2     1    19 1   
     3     1    20 1   
     4     2    11 ar  
     5     2    14 ar  
     6     3    11 ar  
     7     3    12 ar  
     8     3    21 1   
     9     4    12 ar  
    10     4    13 1   
    11     4    14 ar  
    12     5     6 ar  
    13     5    10 ar  
    14     5    22 1   
    15     6     7 ar  
    16     6    23 1   
    17     7     8 ar  
    18     7    29 1   
    19     8     9 ar  
    20     8    24 1   
    21     9    10 ar  
    22     9    25 1   
    23    10    19 1   
    24    11    26 1   
    25    12    27 1   
    26    15    29 1   
    27    16    29 1   
    28    17    19 2   
    29    18    19 2   
    30    28    29 1   
@<TRIPOS>SUBSTRUCTURE
     1 NLS         1 TEMP              0 ****  ****    0 ROOT
