@<TRIPOS>MOLECULE
NLT
   58    58     1     0     0
SMALL
abcg2


@<TRIPOS>ATOM
      1 N           -2.9430    -1.1010    -0.4950 ns         1 NLT      -0.454900
      2 C1          -1.8160    -1.3690     0.1820 c          1 NLT       0.608100
      3 OL          -1.8120    -1.8020     1.3280 o          1 NLT      -0.626100
      4 C2          -0.5380    -1.0920    -0.5830 c3         1 NLT      -0.163400
      5 C3           0.6650    -0.8080     0.3020 c3         1 NLT      -0.063400
      6 C4           1.9370    -0.5940    -0.5080 c3         1 NLT      -0.076400
      7 C5           3.1660    -0.3640     0.3610 c3         1 NLT      -0.074400
      8 C6           4.4430    -0.1540    -0.4430 c3         1 NLT      -0.074400
      9 C7           5.6790     0.0250     0.4280 c3         1 NLT      -0.074400
     10 C8           6.9590     0.2310    -0.3730 c3         1 NLT      -0.074400
     11 C9           8.2000     0.3660     0.5000 c3         1 NLT      -0.074400
     12 C10          9.4810     0.5700    -0.2980 c3         1 NLT      -0.075400
     13 C11         10.7260     0.6670     0.5750 c3         1 NLT      -0.075400
     14 C12         11.9990     0.8780    -0.2330 c3         1 NLT      -0.088100
     15 CA          -4.2420    -1.5570    -0.0680 c3         1 NLT      -0.041300
     16 CB          -5.3320    -0.6970    -0.7190 c3         1 NLT      -0.033100
     17 CG          -5.2280     0.7550    -0.3490 ca         1 NLT      -0.075300
     18 CD2         -5.6980     1.2110     0.8820 ca         1 NLT      -0.075000
     19 CE2         -5.5810     2.5380     1.2600 ca         1 NLT      -0.177000
     20 CZ          -4.9810     3.4560     0.4000 ca         1 NLT       0.108100
     21 CE1         -4.5090     3.0220    -0.8350 ca         1 NLT      -0.177000
     22 CD1         -4.6350     1.6860    -1.1940 ca         1 NLT      -0.075000
     23 OH          -4.8910     4.7400     0.8080 oh         1 NLT      -0.547100
     24 C           -4.4770    -3.0660    -0.3560 c          1 NLT       0.714000
     25 O           -5.5710    -3.5110     0.0440 o          1 NLT      -0.721500
     26 O2          -3.5790    -3.6880    -0.9470 o          1 NLT      -0.721500
     27 HN          -2.8420    -0.8660    -1.4700 hn         1 NLT       0.285500
     28 H21         -0.6940    -0.2690    -1.2880 hc         1 NLT       0.048700
     29 H22         -0.3390    -1.9740    -1.2020 hc         1 NLT       0.048700
     30 H31          0.8130    -1.6370     0.9980 hc         1 NLT       0.050200
     31 H32          0.4730     0.0770     0.9170 hc         1 NLT       0.050200
     32 H41          1.8030     0.2570    -1.1850 hc         1 NLT       0.031700
     33 H42          2.1080    -1.4650    -1.1510 hc         1 NLT       0.031700
     34 H51          3.2990    -1.2200     1.0330 hc         1 NLT       0.037700
     35 H52          2.9990     0.5030     1.0100 hc         1 NLT       0.037700
     36 H61          4.3240     0.7200    -1.0930 hc         1 NLT       0.034200
     37 H62          4.5930    -1.0080    -1.1130 hc         1 NLT       0.034200
     38 H71          5.7950    -0.8520     1.0750 hc         1 NLT       0.036700
     39 H72          5.5310     0.8770     1.1010 hc         1 NLT       0.036700
     40 H81          6.8550     1.1240    -1.0010 hc         1 NLT       0.035700
     41 H82          7.0930    -0.6090    -1.0640 hc         1 NLT       0.035700
     42 H91          8.3000    -0.5280     1.1250 hc         1 NLT       0.036200
     43 H92          8.0670     1.2040     1.1940 hc         1 NLT       0.036200
     44 H101         9.3920     1.4770    -0.9060 hc         1 NLT       0.036200
     45 H102         9.6030    -0.2570    -1.0080 hc         1 NLT       0.036200
     46 H111        10.8180    -0.2450     1.1740 hc         1 NLT       0.036200
     47 H112        10.6040     1.4870     1.2900 hc         1 NLT       0.036200
     48 H121        12.8800     0.9290     0.4080 hc         1 NLT       0.029033
     49 H122        12.1550     0.0640    -0.9440 hc         1 NLT       0.029033
     50 H123        11.9540     1.8080    -0.8040 hc         1 NLT       0.029033
     51 HA          -4.3050    -1.4170     1.0150 h1         1 NLT       0.067700
     52 HB1         -5.2830    -0.8110    -1.8070 hc         1 NLT       0.057200
     53 HB2         -6.2970    -1.0960    -0.4070 hc         1 NLT       0.057200
     54 HD2         -6.1710     0.5140     1.5640 ha         1 NLT       0.113500
     55 HE2         -5.9590     2.8690     2.2200 ha         1 NLT       0.105500
     56 HE1         -4.0430     3.7220    -1.5190 ha         1 NLT       0.105500
     57 HD1         -4.2650     1.3720    -2.1630 ha         1 NLT       0.113500
     58 HOH         -4.4660     5.2760     0.1290 ho         1 NLT       0.451000
@<TRIPOS>BOND
     1     1     2 1   
     2     1    15 1   
     3     1    27 1   
     4     2     3 2   
     5     2     4 1   
     6     4     5 1   
     7     4    28 1   
     8     4    29 1   
     9     5     6 1   
    10     5    30 1   
    11     5    31 1   
    12     6     7 1   
    13     6    32 1   
    14     6    33 1   
    15     7     8 1   
    16     7    34 1   
    17     7    35 1   
    18     8     9 1   
    19     8    36 1   
    20     8    37 1   
    21     9    10 1   
    22     9    38 1   
    23     9    39 1   
    24    10    11 1   
    25    10    40 1   
    26    10    41 1   
    27    11    12 1   
    28    11    42 1   
    29    11    43 1   
    30    12    13 1   
    31    12    44 1   
    32    12    45 1   
    33    13    14 1   
    34    13    46 1   
    35    13    47 1   
    36    14    48 1   
    37    14    49 1   
    38    14    50 1   
    39    15    16 1   
    40    15    24 1   
    41    15    51 1   
    42    16    17 1   
    43    16    52 1   
    44    16    53 1   
    45    17    18 ar  
    46    17    22 ar  
    47    18    19 ar  
    48    18    54 1   
    49    19    20 ar  
    50    19    55 1   
    51    20    21 ar  
    52    20    23 1   
    53    21    22 ar  
    54    21    56 1   
    55    22    57 1   
    56    23    58 1   
    57    24    25 1   
    58    24    26 1   
@<TRIPOS>SUBSTRUCTURE
     1 NLT         1 TEMP              0 ****  ****    0 ROOT
