@<TRIPOS>MOLECULE
NLT
   58    58     1     0     0
SMALL
No Charge or Current Charge


@<TRIPOS>ATOM
      1 N           -3.2220    -1.7220    -1.1630 ns         1 NLT      -0.454900
      2 C1          -2.3800    -2.1430    -0.1550 c          1 NLT       0.608100
      3 OL          -2.7590    -2.3200     0.9950 o          1 NLT      -0.626100
      4 C2          -0.9380    -2.4170    -0.5950 c3         1 NLT      -0.163400
      5 C3           0.0100    -1.2910    -0.1220 c3         1 NLT      -0.063400
      6 C4           1.4830    -1.5300    -0.5190 c3         1 NLT      -0.076400
      7 C5           2.4230    -0.3970    -0.0520 c3         1 NLT      -0.074400
      8 C6           3.8960    -0.6310    -0.4500 c3         1 NLT      -0.074400
      9 C7           4.8360     0.5020     0.0170 c3         1 NLT      -0.074400
     10 C8           6.3100     0.2680    -0.3810 c3         1 NLT      -0.074400
     11 C9           7.2490     1.4010     0.0850 c3         1 NLT      -0.074400
     12 C10          8.7230     1.1670    -0.3130 c3         1 NLT      -0.075400
     13 C11          9.6630     2.3000     0.1540 c3         1 NLT      -0.075400
     14 C12         11.1330     2.0670    -0.2430 c3         1 NLT      -0.088100
     15 CA          -4.6260    -1.2740    -0.9780 c3         1 NLT      -0.041300
     16 CB          -4.7240     0.2700    -0.8750 c3         1 NLT      -0.033100
     17 CG          -3.8090     0.8660     0.1910 ca         1 NLT      -0.075300
     18 CD2         -4.1590     0.7840     1.5530 ca         1 NLT      -0.075000
     19 CE2         -3.3090     1.3220     2.5350 ca         1 NLT      -0.177000
     20 CZ          -2.1060     1.9410     2.1630 ca         1 NLT       0.108100
     21 CE1         -1.7510     2.0270     0.8080 ca         1 NLT      -0.177000
     22 CD1         -2.6010     1.4930    -0.1770 ca         1 NLT      -0.075000
     23 OH          -1.2870     2.4580     3.1200 oh         1 NLT      -0.547100
     24 C           -5.5370    -1.8280    -2.1130 c          1 NLT       0.714000
     25 O           -6.5150    -2.4910    -1.7950 o          1 NLT      -0.721500
     26 O2          -5.2000    -1.6470    -3.2760 o          1 NLT      -0.721500
     27 HN          -2.8200    -1.6480    -2.0900 hn         1 NLT       0.285500
     28 H21         -0.8830    -2.4770    -1.6890 hc         1 NLT       0.048700
     29 H22         -0.6050    -3.3630    -0.1510 hc         1 NLT       0.048700
     30 H31         -0.0590    -1.1940     0.9690 hc         1 NLT       0.050200
     31 H32         -0.3260    -0.3380    -0.5490 hc         1 NLT       0.050200
     32 H41          1.5510    -1.6280    -1.6100 hc         1 NLT       0.031700
     33 H42          1.8230    -2.4800    -0.0900 hc         1 NLT       0.031700
     34 H51          2.3550    -0.2990     1.0380 hc         1 NLT       0.037700
     35 H52          2.0810     0.5540    -0.4810 hc         1 NLT       0.037700
     36 H61          3.9640    -0.7290    -1.5410 hc         1 NLT       0.034200
     37 H62          4.2380    -1.5820    -0.0210 hc         1 NLT       0.034200
     38 H71          4.7680     0.6000     1.1070 hc         1 NLT       0.036700
     39 H72          4.4940     1.4530    -0.4120 hc         1 NLT       0.036700
     40 H81          6.3770     0.1700    -1.4720 hc         1 NLT       0.035700
     41 H82          6.6510    -0.6830     0.0470 hc         1 NLT       0.035700
     42 H91          7.1820     1.4990     1.1760 hc         1 NLT       0.036200
     43 H92          6.9070     2.3520    -0.3430 hc         1 NLT       0.036200
     44 H101         8.7900     1.0690    -1.4030 hc         1 NLT       0.036200
     45 H102         9.0650     0.2170     0.1160 hc         1 NLT       0.036200
     46 H111         9.6000     2.4000     1.2450 hc         1 NLT       0.036200
     47 H112         9.3250     3.2520    -0.2740 hc         1 NLT       0.036200
     48 H121        11.7600     2.8950     0.1090 hc         1 NLT       0.029033
     49 H122        11.5120     1.1380     0.2000 hc         1 NLT       0.029033
     50 H123        11.2350     1.9980    -1.3330 hc         1 NLT       0.029033
     51 HA          -5.0010    -1.7000    -0.0380 h1         1 NLT       0.067700
     52 HB1         -4.4910     0.7070    -1.8540 hc         1 NLT       0.057200
     53 HB2         -5.7660     0.5430    -0.6660 hc         1 NLT       0.057200
     54 HD2         -5.0860     0.2990     1.8490 ha         1 NLT       0.113500
     55 HE2         -3.5830     1.2540     3.5850 ha         1 NLT       0.105500
     56 HE1         -0.8200     2.5040     0.5100 ha         1 NLT       0.105500
     57 HD1         -2.3170     1.5590    -1.2250 ha         1 NLT       0.113500
     58 HOH         -0.5050     2.8510     2.6780 ho         1 NLT       0.451000
@<TRIPOS>BOND
     1     1     2 1   
     2     1    15 1   
     3     1    27 1   
     4     2     3 2   
     5     2     4 1   
     6     4     5 1   
     7     4    28 1   
     8     4    29 1   
     9     5     6 1   
    10     5    30 1   
    11     5    31 1   
    12     6     7 1   
    13     6    32 1   
    14     6    33 1   
    15     7     8 1   
    16     7    34 1   
    17     7    35 1   
    18     8     9 1   
    19     8    36 1   
    20     8    37 1   
    21     9    10 1   
    22     9    38 1   
    23     9    39 1   
    24    10    11 1   
    25    10    40 1   
    26    10    41 1   
    27    11    12 1   
    28    11    42 1   
    29    11    43 1   
    30    12    13 1   
    31    12    44 1   
    32    12    45 1   
    33    13    14 1   
    34    13    46 1   
    35    13    47 1   
    36    14    48 1   
    37    14    49 1   
    38    14    50 1   
    39    15    16 1   
    40    15    24 1   
    41    15    51 1   
    42    16    17 1   
    43    16    52 1   
    44    16    53 1   
    45    17    18 ar  
    46    17    22 ar  
    47    18    19 ar  
    48    18    54 1   
    49    19    20 ar  
    50    19    55 1   
    51    20    21 ar  
    52    20    23 1   
    53    21    22 ar  
    54    21    56 1   
    55    22    57 1   
    56    23    58 1   
    57    24    25 1   
    58    24    26 1   
@<TRIPOS>SUBSTRUCTURE
     1 NLT         1 TEMP              0 ****  ****    0 ROOT
