@<TRIPOS>MOLECULE
NLV
   29    30     1     0     0
SMALL
No Charge or Current Charge


@<TRIPOS>ATOM
      1 N12          2.6710     1.6730     0.2060 nu         1 NLV      -0.891000
      2 C13          2.8390     0.3650     0.5440 ca         1 NLV       0.649900
      3 C15          3.3070    -1.3400     2.1980 ca         1 NLV      -0.038000
      4 C17          2.9270    -1.8220    -0.1380 ca         1 NLV       0.500000
      5 C20         -0.8000     1.8610     0.6220 ca         1 NLV      -0.044000
      6 C21         -1.9920     1.1820     0.9310 ca         1 NLV      -0.051500
      7 C05         -2.3990     0.0630     0.1720 ca         1 NLV      -0.160500
      8 C06         -1.5960    -0.3570    -0.9110 ca         1 NLV      -0.051500
      9 C07         -0.4050     0.3210    -1.2230 ca         1 NLV      -0.044000
     10 C08          0.0010     1.4350    -0.4580 ca         1 NLV      -0.275500
     11 C14          3.1230     0.0130     1.8720 ca         1 NLV      -0.214000
     12 C16          3.2010    -2.2770     1.1610 ca         1 NLV      -0.196000
     13 N19          2.7550    -0.5230    -0.4500 nb         1 NLV      -0.719000
     14 O01         -3.6910    -2.1990     0.1310 o          1 NLV      -0.687200
     15 O03         -4.0920    -0.6230     2.0290 o          1 NLV      -0.687200
     16 O10          1.4470     3.6850    -0.3920 o          1 NLV      -0.546000
     17 O11          2.0220     1.9430    -2.1830 o          1 NLV      -0.546000
     18 S09          1.5390     2.2950    -0.8440 sy         1 NLV       1.186600
     19 Cl1          2.7880    -2.9640    -1.4670 cl         1 NLV      -0.157000
     20 H121         2.6620     2.3080     0.9850 hn         1 NLV       0.514000
     21 H151         3.5230    -1.6500     3.2190 ha         1 NLV       0.116000
     22 H201        -0.5040     2.7180     1.2250 ha         1 NLV       0.120000
     23 H211        -2.5990     1.5290     1.7640 ha         1 NLV       0.134500
     24 H061        -1.8940    -1.2110    -1.5140 ha         1 NLV       0.134500
     25 H071         0.2030    -0.0270    -2.0560 ha         1 NLV       0.120000
     26 H141         3.1970     0.7750     2.6420 ha         1 NLV       0.126000
     27 H161         3.3310    -3.3380     1.3520 ha         1 NLV       0.138000
     28 O2          -4.9470    -0.0820    -0.2450 o          1 NLV      -0.687200
     29 S1          -3.9790    -0.8260     0.5760 s6         1 NLV       1.258100
@<TRIPOS>BOND
     1     1     2 1   
     2     1    18 1   
     3     1    20 1   
     4     2    11 ar  
     5     2    13 ar  
     6     3    11 ar  
     7     3    12 ar  
     8     3    21 1   
     9     4    12 ar  
    10     4    13 ar  
    11     4    19 1   
    12     5     6 ar  
    13     5    10 ar  
    14     5    22 1   
    15     6     7 ar  
    16     6    23 1   
    17     7     8 ar  
    18     7    29 1   
    19     8     9 ar  
    20     8    24 1   
    21     9    10 ar  
    22     9    25 1   
    23    10    18 1   
    24    11    26 1   
    25    12    27 1   
    26    14    29 1   
    27    15    29 1   
    28    16    18 2   
    29    17    18 2   
    30    28    29 1   
@<TRIPOS>SUBSTRUCTURE
     1 NLV         1 TEMP              0 ****  ****    0 ROOT
