@<TRIPOS>MOLECULE
NLV
   29    30     1     0     0
SMALL
bcc


@<TRIPOS>ATOM
      1 N12          2.4460     1.6420     0.5460 nu         1 NLV      -0.835800
      2 C13          2.8290     0.3290     0.7500 ca         1 NLV       0.715200
      3 C15          3.9660    -1.3350     2.0010 ca         1 NLV      -0.056000
      4 C17          2.7530    -1.8150     0.0420 ca         1 NLV       0.565300
      5 C20         -0.9640     1.8690     0.5840 ca         1 NLV      -0.062000
      6 C21         -2.1790     1.2430     0.8110 ca         1 NLV      -0.069500
      7 C05         -2.5240     0.1140     0.0810 ca         1 NLV      -0.160500
      8 C06         -1.6550    -0.3990    -0.8740 ca         1 NLV      -0.069500
      9 C07         -0.4380     0.2190    -1.1090 ca         1 NLV      -0.062000
     10 C08         -0.1060     1.3500    -0.3760 ca         1 NLV      -0.275500
     11 C14          3.6180    -0.0070     1.8510 ca         1 NLV      -0.297300
     12 C16          3.5320    -2.2830     1.0810 ca         1 NLV      -0.279300
     13 N19          2.4090    -0.5600    -0.1320 nb         1 NLV      -0.719000
     14 O01         -3.9130    -2.0890     0.1340 o          1 NLV      -0.687200
     15 O03         -4.5620    -0.2680     1.6620 o          1 NLV      -0.687200
     16 O10          1.2680     3.5850    -0.3680 o          1 NLV      -0.616800
     17 O11          1.9510     1.7630    -1.9500 o          1 NLV      -0.616800
     18 S09          1.4330     2.1720    -0.6620 sy         1 NLV       1.328200
     19 CL1          2.1550    -2.9300    -1.1440 cl         1 NLV      -0.157000
     20 H121         2.6370     2.3230     1.2700 hn         1 NLV       0.458800
     21 H151         4.5760    -1.6400     2.8400 ha         1 NLV       0.134000
     22 H201        -0.7050     2.7530     1.1520 ha         1 NLV       0.138000
     23 H211        -2.8500     1.6420     1.5600 ha         1 NLV       0.152500
     24 H061        -1.9140    -1.2870    -1.4350 ha         1 NLV       0.152500
     25 H071         0.2400    -0.1880    -1.8440 ha         1 NLV       0.138000
     26 H141         3.9420     0.7440     2.5580 ha         1 NLV       0.144000
     27 H161         3.7880    -3.3280     1.1740 ha         1 NLV       0.156000
     28 O2          -4.9590    -0.0490    -0.7570 o          1 NLV      -0.687200
     29 S1          -4.1360    -0.6450     0.3060 s6         1 NLV       1.258100
@<TRIPOS>BOND
     1     1     2 1   
     2     1    18 1   
     3     1    20 1   
     4     2    11 ar  
     5     2    13 ar  
     6     3    11 ar  
     7     3    12 ar  
     8     3    21 1   
     9     4    12 ar  
    10     4    13 ar  
    11     4    19 1   
    12     5     6 ar  
    13     5    10 ar  
    14     5    22 1   
    15     6     7 ar  
    16     6    23 1   
    17     7     8 ar  
    18     7    29 1   
    19     8     9 ar  
    20     8    24 1   
    21     9    10 ar  
    22     9    25 1   
    23    10    18 1   
    24    11    26 1   
    25    12    27 1   
    26    14    29 1   
    27    15    29 1   
    28    16    18 2   
    29    17    18 2   
    30    28    29 1   
@<TRIPOS>SUBSTRUCTURE
     1 NLV         1 TEMP              0 ****  ****    0 ROOT
