@<TRIPOS>MOLECULE
NLW
   23    22     1     0     0
SMALL
abcg2


@<TRIPOS>ATOM
      1 CD2          2.9980    -0.1240     1.1340 c3         1 NLW      -0.088100
      2 CG           1.9830     0.1990     0.0410 c3         1 NLW      -0.055700
      3 CD1          2.3310    -0.5330    -1.2500 c3         1 NLW      -0.088100
      4 CB           0.5750    -0.1400     0.5310 c3         1 NLW      -0.064400
      5 CA          -0.5550     0.2220    -0.4420 c3         1 NLW       0.088500
      6 N           -0.5130     1.6290    -0.7700 n8         1 NLW      -0.984200
      7 C           -1.8770    -0.2130     0.1990 c          1 NLW       0.559100
      8 O           -2.5260     0.5430     0.9090 o          1 NLW      -0.613100
      9 NH2         -2.2410    -1.4800    -0.0460 nt         1 NLW      -0.605000
     10 H1           2.7700     0.4110     2.0580 hc         1 NLW       0.031367
     11 H2           3.0030    -1.1920     1.3630 hc         1 NLW       0.031367
     12 H3           4.0080     0.1540     0.8300 hc         1 NLW       0.031367
     13 H4           2.0260     1.2740    -0.1540 hc         1 NLW       0.067700
     14 H5           2.2570    -1.6170    -1.1180 hc         1 NLW       0.031367
     15 H6           1.6700    -0.2530    -2.0710 hc         1 NLW       0.031367
     16 H7           3.3520    -0.3090    -1.5650 hc         1 NLW       0.031367
     17 H8           0.5240    -1.2120     0.7530 hc         1 NLW       0.044700
     18 H9           0.3900     0.3760     1.4800 hc         1 NLW       0.044700
     19 H10         -0.4170    -0.3440    -1.3690 h1         1 NLW       0.062700
     20 H11         -1.2300     1.8470    -1.4510 hn         1 NLW       0.408000
     21 H12         -0.7370     2.1720     0.0550 hn         1 NLW       0.408000
     22 H14         -1.7030    -2.0790    -0.6470 hn         1 NLW       0.313000
     23 H15         -3.0560    -1.8770     0.3930 hn         1 NLW       0.313000
@<TRIPOS>BOND
     1     1     2 1   
     2     1    10 1   
     3     1    11 1   
     4     1    12 1   
     5     2     3 1   
     6     2     4 1   
     7     2    13 1   
     8     3    14 1   
     9     3    15 1   
    10     3    16 1   
    11     4     5 1   
    12     4    17 1   
    13     4    18 1   
    14     5     6 1   
    15     5     7 1   
    16     5    19 1   
    17     6    20 1   
    18     6    21 1   
    19     7     8 2   
    20     7     9 1   
    21     9    22 1   
    22     9    23 1   
@<TRIPOS>SUBSTRUCTURE
     1 NLW         1 TEMP              0 ****  ****    0 ROOT
