@<TRIPOS>MOLECULE
NLW
   23    22     1     0     0
SMALL
No Charge or Current Charge


@<TRIPOS>ATOM
      1 CD2          3.0450    -0.1720     1.1210 c3         1 NLW      -0.088100
      2 CG           2.0090     0.1610     0.0220 c3         1 NLW      -0.055700
      3 CD1          2.3480    -0.5860    -1.2900 c3         1 NLW      -0.088100
      4 CB           0.5610    -0.1210     0.5220 c3         1 NLW      -0.064400
      5 CA          -0.5930     0.3150    -0.4300 c3         1 NLW       0.088500
      6 N           -0.5430     1.7980    -0.6790 n8         1 NLW      -0.984200
      7 C           -1.9840    -0.2260     0.0750 c          1 NLW       0.559100
      8 O           -2.9000     0.4980     0.4380 o          1 NLW      -0.613100
      9 NH2         -2.1510    -1.5700     0.0860 nt         1 NLW      -0.605000
     10 H1           2.8410     0.4010     2.0340 hc         1 NLW       0.031367
     11 H2           3.0200    -1.2390     1.3720 hc         1 NLW       0.031367
     12 H3           4.0590     0.0780     0.7870 hc         1 NLW       0.031367
     13 H4           2.0970     1.2370    -0.1800 hc         1 NLW       0.067700
     14 H5           2.2220    -1.6690    -1.1680 hc         1 NLW       0.031367
     15 H6           1.7070    -0.2540    -2.1140 hc         1 NLW       0.031367
     16 H7           3.3870    -0.3950    -1.5860 hc         1 NLW       0.031367
     17 H8           0.4760    -1.1970     0.7200 hc         1 NLW       0.044700
     18 H9           0.4140     0.3750     1.4900 hc         1 NLW       0.044700
     19 H10         -0.4330    -0.1810    -1.3970 h1         1 NLW       0.062700
     20 H11         -1.3010     2.0510    -1.3250 hn         1 NLW       0.408000
     21 H12         -0.8150     2.2830     0.1850 hn         1 NLW       0.408000
     22 H14         -1.4050    -2.1780    -0.2200 hn         1 NLW       0.313000
     23 H15         -3.0290    -1.9560     0.3980 hn         1 NLW       0.313000
@<TRIPOS>BOND
     1     1     2 1   
     2     1    10 1   
     3     1    11 1   
     4     1    12 1   
     5     2     3 1   
     6     2     4 1   
     7     2    13 1   
     8     3    14 1   
     9     3    15 1   
    10     3    16 1   
    11     4     5 1   
    12     4    17 1   
    13     4    18 1   
    14     5     6 1   
    15     5     7 1   
    16     5    19 1   
    17     6    20 1   
    18     6    21 1   
    19     7     8 2   
    20     7     9 1   
    21     9    22 1   
    22     9    23 1   
@<TRIPOS>SUBSTRUCTURE
     1 NLW         1 TEMP              0 ****  ****    0 ROOT
