@<TRIPOS>MOLECULE
NLX
   49    53     1     0     0
SMALL
No Charge or Current Charge


@<TRIPOS>ATOM
      1 O1           4.3510     1.2550    -1.4040 oh         1 NLX      -0.496100
      2 O2           2.2760    -0.8420    -1.4780 os         1 NLX      -0.277100
      3 O4          -1.6240    -2.1010     0.7010 oh         1 NLX      -0.659000
      4 N1          -2.4740     0.8350     0.2200 n4         1 NLX      -0.521000
      5 C1           1.7790     2.4800     0.9820 ca         1 NLX      -0.072000
      6 C3           3.1880     1.3390    -0.6870 ca         1 NLX       0.159100
      7 C4           2.2020     0.3380    -0.7750 ca         1 NLX       0.099100
      8 C5           1.2660    -1.6930    -0.8010 c5         1 NLX       0.072300
      9 C6           1.9540    -2.4260     0.4030 c          1 NLX       0.548100
     10 C7           1.0750    -2.7710     1.6170 c6         1 NLX      -0.174400
     11 C8           0.2290    -1.5550     2.0930 c6         1 NLX      -0.092400
     12 C9          -1.4940     0.3170     1.3650 c6         1 NLX       0.118300
     13 C10         -0.4560     1.4270     1.8110 c6         1 NLX      -0.033100
     14 C11          0.7980     1.4730     0.8740 ca         1 NLX      -0.111300
     15 C12          1.0400     0.4400    -0.0600 ca         1 NLX      -0.168300
     16 C13          0.1240    -0.7000    -0.3240 c5         1 NLX      -0.015700
     17 C14         -0.7100    -1.0240     0.9640 c6         1 NLX       0.190000
     18 C15         -0.8480    -0.2840    -1.4750 c6         1 NLX      -0.078400
     19 C16         -1.6770     0.9690    -1.1030 c6         1 NLX       0.113600
     20 C17         -3.6610    -0.1280     0.0220 c3         1 NLX       0.144800
     21 C18         -4.7170     0.3460    -0.9570 c2         1 NLX      -0.305200
     22 C19         -4.7250     0.0890    -2.2770 c2         1 NLX      -0.215000
     23 C20         -3.0790     2.2090     0.5760 c3         1 NLX       0.077900
     24 HO11         4.9040     2.0380    -1.1970 ho         1 NLX       0.478000
     25 HO41        -2.0040    -2.3750     1.5630 ho         1 NLX       0.463000
     26 H11          1.6400     3.2960     1.6870 ha         1 NLX       0.130000
     27 H21          3.6990     3.2110     0.2940 ha         1 NLX       0.136000
     28 H51          0.8910    -2.4640    -1.4850 h1         1 NLX       0.118700
     29 H71          0.3760    -3.5490     1.2850 hc         1 NLX       0.089700
     30 H72          1.6960    -3.1800     2.4250 hc         1 NLX       0.089700
     31 H81         -0.3630    -1.8340     2.9760 hc         1 NLX       0.069200
     32 H82          0.9260    -0.7810     2.4380 hc         1 NLX       0.069200
     33 H91         -2.1540     0.1080     2.2120 hx         1 NLX       0.082700
     34 H101        -0.9050     2.4220     1.8980 hc         1 NLX       0.079700
     35 H102        -0.1190     1.2020     2.8310 hc         1 NLX       0.079700
     36 H151        -0.2800    -0.0670    -2.3890 hc         1 NLX       0.091700
     37 H152        -1.5180    -1.1150    -1.7300 hc         1 NLX       0.091700
     38 H161        -2.3940     1.2230    -1.8890 hx         1 NLX       0.094700
     39 H162        -1.0120     1.8280    -0.9720 hx         1 NLX       0.094700
     40 H171        -3.2700    -1.0810    -0.3330 hx         1 NLX       0.097200
     41 H172        -4.1170    -0.2970     1.0010 hx         1 NLX       0.097200
     42 H181        -5.5220     0.9270    -0.5010 ha         1 NLX       0.197000
     43 H191        -3.9420    -0.4990    -2.7570 ha         1 NLX       0.188500
     44 H192        -5.5220     0.4550    -2.9270 ha         1 NLX       0.188500
     45 H201        -2.2900     2.9620     0.6080 hx         1 NLX       0.091033
     46 H202        -3.8020     2.4930    -0.1900 hx         1 NLX       0.091033
     47 H203        -3.5760     2.1440     1.5460 hx         1 NLX       0.091033
     48 O3           3.1540    -2.6690     0.4580 o          1 NLX      -0.445100
     49 C2           2.9560     2.4240     0.1910 ca         1 NLX      -0.159000
@<TRIPOS>BOND
     1     1     6 1   
     2     1    24 1   
     3     2     7 1   
     4     2     8 1   
     5     3    17 1   
     6     3    25 1   
     7     4    12 1   
     8     4    19 1   
     9     4    20 1   
    10     4    23 1   
    11     5    14 ar  
    12     5    26 1   
    13     5    49 ar  
    14     6     7 ar  
    15     6    49 ar  
    16     7    15 ar  
    17     8     9 1   
    18     8    16 1   
    19     8    28 1   
    20     9    10 1   
    21     9    48 2   
    22    10    11 1   
    23    10    29 1   
    24    10    30 1   
    25    11    17 1   
    26    11    31 1   
    27    11    32 1   
    28    12    13 1   
    29    12    17 1   
    30    12    33 1   
    31    13    14 1   
    32    13    34 1   
    33    13    35 1   
    34    14    15 ar  
    35    15    16 1   
    36    16    17 1   
    37    16    18 1   
    38    18    19 1   
    39    18    36 1   
    40    18    37 1   
    41    19    38 1   
    42    19    39 1   
    43    20    21 1   
    44    20    40 1   
    45    20    41 1   
    46    21    22 2   
    47    21    42 1   
    48    22    43 1   
    49    22    44 1   
    50    23    45 1   
    51    23    46 1   
    52    23    47 1   
    53    27    49 1   
@<TRIPOS>SUBSTRUCTURE
     1 NLX         1 TEMP              0 ****  ****    0 ROOT
