@<TRIPOS>MOLECULE
NLX
   49    53     1     0     0
SMALL
abcg2


@<TRIPOS>ATOM
      1 O1           4.2920     1.2960    -1.3430 oh         1 NLX      -0.496100
      2 O2           2.2400    -0.7680    -1.3970 os         1 NLX      -0.277100
      3 O4          -1.6090    -2.0420     0.5150 oh         1 NLX      -0.659000
      4 N1          -2.3710     0.8610     0.1870 n4         1 NLX      -0.521000
      5 C1           1.7280     2.5240     1.0460 ca         1 NLX      -0.072000
      6 C3           3.1500     1.4090    -0.6100 ca         1 NLX       0.159100
      7 C4           2.1830     0.4150    -0.6930 ca         1 NLX       0.099100
      8 C5           1.2280    -1.6210    -0.7840 c5         1 NLX       0.072300
      9 C6           1.8710    -2.3980     0.3800 c          1 NLX       0.548100
     10 C7           0.9660    -2.7680     1.5220 c6         1 NLX      -0.174400
     11 C8           0.1760    -1.5490     2.0260 c6         1 NLX      -0.092400
     12 C9          -1.4530     0.3110     1.3250 c6         1 NLX       0.118300
     13 C10         -0.4530     1.3680     1.8280 c6         1 NLX      -0.033100
     14 C11          0.7580     1.5240     0.9410 ca         1 NLX      -0.111300
     15 C12          1.0120     0.5260     0.0260 ca         1 NLX      -0.168300
     16 C13          0.1270    -0.6390    -0.3270 c5         1 NLX      -0.015700
     17 C14         -0.7100    -1.0060     0.8990 c6         1 NLX       0.190000
     18 C15         -0.8220    -0.2630    -1.4800 c6         1 NLX      -0.078400
     19 C16         -1.6340     0.9670    -1.1330 c6         1 NLX       0.113600
     20 C17         -3.6150    -0.0430     0.0580 c3         1 NLX       0.144800
     21 C18         -4.6120     0.4030    -0.9620 c2         1 NLX      -0.305200
     22 C19         -4.8250    -0.2820    -2.0800 c2         1 NLX      -0.215000
     23 C20         -2.8680     2.2340     0.5350 c3         1 NLX       0.077900
     24 HO11         4.8740     2.0470    -1.1600 ho         1 NLX       0.478000
     25 HO41        -2.0540    -2.3810     1.3040 ho         1 NLX       0.463000
     26 H11          1.6010     3.3410     1.7460 ha         1 NLX       0.130000
     27 H21          3.6280     3.2540     0.3590 ha         1 NLX       0.136000
     28 H51          0.8910    -2.3330    -1.5380 h1         1 NLX       0.118700
     29 H71          0.2680    -3.5320     1.1680 hc         1 NLX       0.089700
     30 H72          1.5710    -3.2000     2.3180 hc         1 NLX       0.089700
     31 H81         -0.4540    -1.8390     2.8690 hc         1 NLX       0.069200
     32 H82          0.8740    -0.7960     2.3860 hc         1 NLX       0.069200
     33 H91         -2.1500     0.0770     2.1280 hx         1 NLX       0.082700
     34 H101        -0.9390     2.3190     2.0270 hc         1 NLX       0.079700
     35 H102        -0.1280     1.0200     2.8110 hc         1 NLX       0.079700
     36 H151        -0.2410    -0.0200    -2.3700 hc         1 NLX       0.091700
     37 H152        -1.4590    -1.1110    -1.7240 hc         1 NLX       0.091700
     38 H161        -2.3840     1.1790    -1.8900 hx         1 NLX       0.094700
     39 H162        -0.9860     1.8340    -1.0440 hx         1 NLX       0.094700
     40 H171        -3.2520    -1.0320    -0.1780 hx         1 NLX       0.097200
     41 H172        -4.0510    -0.0520     1.0560 hx         1 NLX       0.097200
     42 H181        -5.2190     1.2730    -0.7420 ha         1 NLX       0.197000
     43 H191        -4.2450    -1.1660    -2.3210 ha         1 NLX       0.188500
     44 H192        -5.5890     0.0170    -2.7870 ha         1 NLX       0.188500
     45 H201        -2.0460     2.9370     0.5300 hx         1 NLX       0.091033
     46 H202        -3.5830     2.5330    -0.2230 hx         1 NLX       0.091033
     47 H203        -3.3450     2.1980     1.5110 hx         1 NLX       0.091033
     48 O3           3.0480    -2.6800     0.3510 o          1 NLX      -0.445100
     49 C2           2.8830     2.4710     0.2660 ca         1 NLX      -0.159000
@<TRIPOS>BOND
     1     1     6 1   
     2     1    24 1   
     3     2     7 1   
     4     2     8 1   
     5     3    17 1   
     6     3    25 1   
     7     4    12 1   
     8     4    19 1   
     9     4    20 1   
    10     4    23 1   
    11     5    14 ar  
    12     5    26 1   
    13     5    49 ar  
    14     6     7 ar  
    15     6    49 ar  
    16     7    15 ar  
    17     8     9 1   
    18     8    16 1   
    19     8    28 1   
    20     9    10 1   
    21     9    48 2   
    22    10    11 1   
    23    10    29 1   
    24    10    30 1   
    25    11    17 1   
    26    11    31 1   
    27    11    32 1   
    28    12    13 1   
    29    12    17 1   
    30    12    33 1   
    31    13    14 1   
    32    13    34 1   
    33    13    35 1   
    34    14    15 ar  
    35    15    16 1   
    36    16    17 1   
    37    16    18 1   
    38    18    19 1   
    39    18    36 1   
    40    18    37 1   
    41    19    38 1   
    42    19    39 1   
    43    20    21 1   
    44    20    40 1   
    45    20    41 1   
    46    21    22 2   
    47    21    42 1   
    48    22    43 1   
    49    22    44 1   
    50    23    45 1   
    51    23    46 1   
    52    23    47 1   
    53    27    49 1   
@<TRIPOS>SUBSTRUCTURE
     1 NLX         1 TEMP              0 ****  ****    0 ROOT
