@<TRIPOS>MOLECULE
NLY
   23    22     1     0     0
SMALL
bcc


@<TRIPOS>ATOM
      1 N           -0.8860     0.1610    -0.1720 n7         1 NLY      -0.803200
      2 CB           0.3570    -0.5710    -0.0700 c3         1 NLY       0.170800
      3 CG           1.5590     0.3620    -0.1010 c3         1 NLY      -0.082400
      4 CD           2.8830    -0.3800     0.0120 c3         1 NLY      -0.077400
      5 CE           4.0830     0.5550    -0.0170 c3         1 NLY       0.145800
      6 NZ           5.3290    -0.1900     0.0970 n8         1 NLY      -0.888800
      7 CA          -2.0580    -0.6830    -0.0990 c3         1 NLY       0.018800
      8 C2          -3.3440     0.1030     0.2170 c          1 NLY       0.928600
      9 O           -3.2090     1.2220     0.7510 o          1 NLY      -0.842300
     10 H1          -0.9490     0.8410     0.5750 hn         1 NLY       0.373800
     11 H3           0.4060    -1.1960     0.8390 h1         1 NLY       0.007200
     12 H4           0.4240    -1.2670    -0.9140 h1         1 NLY       0.007200
     13 H5           1.5370     0.9440    -1.0280 hc         1 NLY       0.040700
     14 H6           1.4730     1.0840     0.7190 hc         1 NLY       0.040700
     15 H7           2.8990    -0.9580     0.9430 hc         1 NLY       0.039700
     16 H8           2.9760    -1.1050    -0.8030 hc         1 NLY       0.039700
     17 H9           4.0920     1.0930    -0.9690 h1         1 NLY       0.025200
     18 H10          3.9560     1.3170     0.7660 h1         1 NLY       0.025200
     19 H11          6.1120     0.4490     0.0390 hn         1 NLY       0.327800
     20 H12          5.3850    -0.6030     1.0200 hn         1 NLY       0.327800
     21 H14         -2.1830    -1.2240    -1.0420 h1         1 NLY       0.008700
     22 H15         -1.9650    -1.4640     0.6790 h1         1 NLY       0.008700
     23 OXT         -4.4180    -0.4690    -0.0530 o          1 NLY      -0.842300
@<TRIPOS>BOND
     1     1     2 1   
     2     1     7 1   
     3     1    10 1   
     4     2     3 1   
     5     2    11 1   
     6     2    12 1   
     7     3     4 1   
     8     3    13 1   
     9     3    14 1   
    10     4     5 1   
    11     4    15 1   
    12     4    16 1   
    13     5     6 1   
    14     5    17 1   
    15     5    18 1   
    16     6    19 1   
    17     6    20 1   
    18     7     8 1   
    19     7    21 1   
    20     7    22 1   
    21     8     9 1   
    22     8    23 1   
@<TRIPOS>SUBSTRUCTURE
     1 NLY         1 TEMP              0 ****  ****    0 ROOT
