@<TRIPOS>MOLECULE
NLY
   23    22     1     0     0
SMALL
No Charge or Current Charge


@<TRIPOS>ATOM
      1 N           -0.8940     0.1420    -0.0460 n7         1 NLY      -0.858400
      2 CB           0.3690    -0.6120     0.0230 c3         1 NLY       0.170800
      3 CG           1.5750     0.3470    -0.0680 c3         1 NLY      -0.082400
      4 CD           2.9330    -0.3880    -0.0020 c3         1 NLY      -0.077400
      5 CE           4.1380     0.5710    -0.0950 c3         1 NLY       0.145800
      6 NZ           5.4170    -0.1590    -0.0300 n8         1 NLY      -0.999200
      7 CA          -2.1400    -0.6900     0.0240 c3         1 NLY       0.018800
      8 C           -3.4960     0.1140     0.0520 c          1 NLY       0.718000
      9 O           -3.7040     0.8690     0.9950 o          1 NLY      -0.737000
     10 H           -0.9130     0.8060     0.7410 hn         1 NLY       0.429000
     11 H3           0.4250    -1.1700     0.9670 h1         1 NLY       0.007200
     12 H4           0.4230    -1.3360    -0.8010 h1         1 NLY       0.007200
     13 H5           1.5180     0.9110    -1.0070 hc         1 NLY       0.040700
     14 H6           1.5220     1.0750     0.7510 hc         1 NLY       0.040700
     15 H7           2.9890    -0.9530     0.9370 hc         1 NLY       0.039700
     16 H8           2.9860    -1.1170    -0.8210 hc         1 NLY       0.039700
     17 H9           4.0980     1.1260    -1.0430 h1         1 NLY       0.025200
     18 H10          4.1020     1.2920     0.7330 h1         1 NLY       0.025200
     19 H11          6.1890     0.5200    -0.0290 hn         1 NLY       0.383000
     20 H12          5.4950    -0.6140     0.8870 hn         1 NLY       0.383000
     21 HA2         -2.1710    -1.3800    -0.8310 h1         1 NLY       0.008700
     22 HA3         -2.1180    -1.3090     0.9320 h1         1 NLY       0.008700
     23 OXT         -4.2810    -0.0250    -0.8790 o          1 NLY      -0.737000
@<TRIPOS>BOND
     1     1     2 1   
     2     1     7 1   
     3     1    10 1   
     4     2     3 1   
     5     2    11 1   
     6     2    12 1   
     7     3     4 1   
     8     3    13 1   
     9     3    14 1   
    10     4     5 1   
    11     4    15 1   
    12     4    16 1   
    13     5     6 1   
    14     5    17 1   
    15     5    18 1   
    16     6    19 1   
    17     6    20 1   
    18     7     8 1   
    19     7    21 1   
    20     7    22 1   
    21     8     9 1   
    22     8    23 1   
@<TRIPOS>SUBSTRUCTURE
     1 NLY         1 TEMP              0 ****  ****    0 ROOT
