@<TRIPOS>MOLECULE
NLZ
   18    18     1     0     0
SMALL
No Charge or Current Charge


@<TRIPOS>ATOM
      1 C10         40.6540   -49.1020   -11.1850 c          1 NLZ       0.639700
      2 O08         39.0350   -47.5970   -13.0060 oh         1 NLZ      -0.550100
      3 C07         39.2570   -47.0740   -11.7730 ca         1 NLZ       0.263100
      4 C06         38.6870   -45.8360   -11.4580 ca         1 NLZ      -0.224000
      5 C05         38.8950   -45.2690   -10.1990 ca         1 NLZ       0.210100
      6 O09         38.3390   -44.0660    -9.8990 oh         1 NLZ      -0.523100
      7 C04         39.6740   -45.9400    -9.2510 ca         1 NLZ      -0.269000
      8 C03         40.2490   -47.1830    -9.5600 ca         1 NLZ       0.008000
      9 C02         40.0470   -47.7690   -10.8320 ca         1 NLZ      -0.319600
     10 O11         40.4870   -49.6180   -12.2790 o          1 NLZ      -0.659100
     11 N01         41.4010   -49.7370   -10.2650 nt         1 NLZ      -0.581000
     12 H08         39.5260   -48.4630   -13.0060 ho         1 NLZ       0.529000
     13 H06         38.0830   -45.3150   -12.1940 ha         1 NLZ       0.149000
     14 H09         38.5950   -43.8360    -8.9810 ho         1 NLZ       0.470000
     15 H04         39.8400   -45.5050    -8.2680 ha         1 NLZ       0.118000
     16 H03         40.8490   -47.6760    -8.7980 ha         1 NLZ       0.100000
     17 H01         41.8090   -50.6290   -10.4980 hn         1 NLZ       0.320000
     18 H1A         41.5490   -49.3260    -9.3580 hn         1 NLZ       0.320000
@<TRIPOS>BOND
     1     1     9 1   
     2     1    10 2   
     3     1    11 1   
     4     2     3 1   
     5     2    12 1   
     6     3     4 ar  
     7     3     9 ar  
     8     4     5 ar  
     9     4    13 1   
    10     5     6 1   
    11     5     7 ar  
    12     6    14 1   
    13     7     8 ar  
    14     7    15 1   
    15     8     9 ar  
    16     8    16 1   
    17    11    17 1   
    18    11    18 1   
@<TRIPOS>SUBSTRUCTURE
     1 NLZ         1 TEMP              0 ****  ****    0 ROOT
