@<TRIPOS>MOLECULE
NLZ
   18    18     1     0     0
SMALL
bcc


@<TRIPOS>ATOM
      1 C10         40.6390   -49.0790   -11.1680 c          1 NLZ       0.706700
      2 O08         39.0470   -47.5800   -12.9690 oh         1 NLZ      -0.511100
      3 C07         39.2770   -47.0840   -11.7570 ca         1 NLZ       0.263100
      4 C06         38.7130   -45.8500   -11.4430 ca         1 NLZ      -0.242000
      5 C05         38.9130   -45.2860   -10.1920 ca         1 NLZ       0.210100
      6 O09         38.3410   -44.1000    -9.9480 oh         1 NLZ      -0.484100
      7 C04         39.6870   -45.9520    -9.2340 ca         1 NLZ      -0.287000
      8 C03         40.2420   -47.1710    -9.5530 ca         1 NLZ      -0.010000
      9 C02         40.0620   -47.7710   -10.8020 ca         1 NLZ      -0.319600
     10 O11         40.4240   -49.5670   -12.2920 o          1 NLZ      -0.659100
     11 N01         41.3870   -49.7320   -10.2790 nt         1 NLZ      -0.648000
     12 H08         39.5190   -48.4550   -13.0030 ho         1 NLZ       0.490000
     13 H06         38.1120   -45.3360   -12.1820 ha         1 NLZ       0.167000
     14 H09         38.5310   -43.8100    -9.0480 ho         1 NLZ       0.431000
     15 H04         39.8480   -45.5200    -8.2540 ha         1 NLZ       0.136000
     16 H03         40.8310   -47.6570    -8.7860 ha         1 NLZ       0.118000
     17 H01         41.7860   -50.6220   -10.5280 hn         1 NLZ       0.320000
     18 H1A         41.6180   -49.3690    -9.3720 hn         1 NLZ       0.320000
@<TRIPOS>BOND
     1     1     9 1   
     2     1    10 2   
     3     1    11 1   
     4     2     3 1   
     5     2    12 1   
     6     3     4 ar  
     7     3     9 ar  
     8     4     5 ar  
     9     4    13 1   
    10     5     6 1   
    11     5     7 ar  
    12     6    14 1   
    13     7     8 ar  
    14     7    15 1   
    15     8     9 ar  
    16     8    16 1   
    17    11    17 1   
    18    11    18 1   
@<TRIPOS>SUBSTRUCTURE
     1 NLZ         1 TEMP              0 ****  ****    0 ROOT
