@<TRIPOS>MOLECULE
NM0
   32    34     1     0     0
SMALL
No Charge or Current Charge


@<TRIPOS>ATOM
      1 N1           7.0840     0.1300    17.4340 nc         1 NM0      -0.289600
      2 C4          11.2130    -0.6370    22.6830 ca         1 NM0      -0.070300
      3 C5           9.7300    -0.9840    22.7810 c3         1 NM0      -0.105100
      4 C6           8.9010    -0.1050    21.8370 c          1 NM0       0.594100
      5 C7           7.7950    -0.1990    19.5850 cd         1 NM0      -0.070500
      6 C8           7.9510    -0.5550    18.2610 cc         1 NM0      -0.010400
      7 C10          5.2610     1.7250    17.8770 cd         1 NM0      -0.078000
      8 C13          5.9940     1.1310    20.6240 cd         1 NM0      -0.091000
      9 O            8.6190     1.0530    22.1140 o          1 NM0      -0.561100
     10 C3          11.7430     0.4300    23.4360 ca         1 NM0      -0.084000
     11 C2          13.1070     0.7570    23.3440 ca         1 NM0      -0.099000
     12 C1          13.9510     0.0170    22.4980 ca         1 NM0      -0.094000
     13 C14         12.0650    -1.3740    21.8350 ca         1 NM0      -0.095000
     14 C           13.4280    -1.0460    21.7450 ca         1 NM0       0.126000
     15 Cl          14.4830    -1.9720    20.6840 cl         1 NM0      -0.211000
     16 N            8.5520    -0.7080    20.6400 ns         1 NM0      -0.412100
     17 N2           6.7900     0.7500    19.5350 na         1 NM0       0.124100
     18 C9           6.3580     0.8870    18.2370 cd         1 NM0      -0.063000
     19 C12          4.9330     1.9680    20.2910 cc         1 NM0      -0.148000
     20 C11          4.5780     2.2940    18.9310 cc         1 NM0      -0.098000
     21 H1           9.3850    -0.8160    23.8080 hc         1 NM0       0.067200
     22 H2           9.5890    -2.0410    22.5240 hc         1 NM0       0.067200
     23 H3           8.6560    -1.2650    17.8380 h4         1 NM0       0.231000
     24 H4           4.9590     1.8750    16.8460 ha         1 NM0       0.144000
     25 H5           6.2520     0.8060    21.6210 h4         1 NM0       0.144000
     26 H6          11.0960     1.0100    24.0910 ha         1 NM0       0.121000
     27 H7          13.5090     1.5820    23.9280 ha         1 NM0       0.122000
     28 H8          15.0070     0.2680    22.4240 ha         1 NM0       0.132000
     29 H9          11.6760    -2.2000    21.2460 ha         1 NM0       0.126000
     30 H10          9.0070    -1.6050    20.5060 hn         1 NM0       0.328500
     31 H11          4.3110     2.3760    21.0830 ha         1 NM0       0.130000
     32 H12          3.7250     2.9420    18.7500 ha         1 NM0       0.124000
@<TRIPOS>BOND
     1     1     6 1   
     2     1    18 2   
     3     2     3 1   
     4     2    10 ar  
     5     2    13 ar  
     6     3     4 1   
     7     3    21 1   
     8     3    22 1   
     9     4     9 2   
    10     4    16 1   
    11     5     6 2   
    12     5    16 1   
    13     5    17 1   
    14     6    23 1   
    15     7    18 1   
    16     7    20 2   
    17     7    24 1   
    18     8    17 1   
    19     8    19 2   
    20     8    25 1   
    21    10    11 ar  
    22    10    26 1   
    23    11    12 ar  
    24    11    27 1   
    25    12    14 ar  
    26    12    28 1   
    27    13    14 ar  
    28    13    29 1   
    29    14    15 1   
    30    16    30 1   
    31    17    18 1   
    32    19    20 1   
    33    19    31 1   
    34    20    32 1   
@<TRIPOS>SUBSTRUCTURE
     1 NM0         1 TEMP              0 ****  ****    0 ROOT
