@<TRIPOS>MOLECULE
NM0
   32    34     1     0     0
SMALL
abcg2


@<TRIPOS>ATOM
      1 N1           6.9290     0.1620    17.3210 nc         1 NM0      -0.289600
      2 C4          11.2610    -0.5500    22.6190 ca         1 NM0      -0.070300
      3 C5           9.7900    -0.8420    22.4750 c3         1 NM0      -0.105100
      4 C6           9.1780    -0.1090    21.2900 c          1 NM0       0.594100
      5 C7           7.6960    -0.3470    19.3890 cd         1 NM0      -0.070500
      6 C8           7.8490    -0.5460    18.0370 cc         1 NM0      -0.010400
      7 C10          5.1160     1.7080    18.0640 cd         1 NM0      -0.078000
      8 C13          6.0470     1.0670    20.6310 cd         1 NM0      -0.091000
      9 O            9.3630     1.0820    21.0830 o          1 NM0      -0.561100
     10 C3          11.7160     0.4680    23.4540 ca         1 NM0      -0.084000
     11 C2          13.0760     0.7420    23.5570 ca         1 NM0      -0.099000
     12 C1          14.0030     0.0050    22.8280 ca         1 NM0      -0.094000
     13 C14         12.1860    -1.2940    21.8860 ca         1 NM0      -0.095000
     14 C           13.5380    -1.0060    21.9990 ca         1 NM0       0.126000
     15 CL          14.6900    -1.9510    21.0740 cl         1 NM0      -0.211000
     16 N            8.3750    -0.8690    20.4900 ns         1 NM0      -0.412100
     17 N2           6.6320     0.5290    19.5180 na         1 NM0       0.124100
     18 C9           6.1970     0.8200    18.2210 cd         1 NM0      -0.063000
     19 C12          5.0000     1.9220    20.4740 cc         1 NM0      -0.148000
     20 C11          4.5290     2.2510    19.1760 cc         1 NM0      -0.098000
     21 H1           9.2520    -0.4930    23.3600 hc         1 NM0       0.067200
     22 H2           9.6200    -1.9150    22.3870 hc         1 NM0       0.067200
     23 H3           8.5850    -1.1760    17.5630 h4         1 NM0       0.231000
     24 H4           4.7760     1.9380    17.0640 ha         1 NM0       0.144000
     25 H5           6.4540     0.7710    21.5850 h4         1 NM0       0.144000
     26 H6          11.0040     1.0460    24.0290 ha         1 NM0       0.121000
     27 H7          13.4210     1.5320    24.2120 ha         1 NM0       0.122000
     28 H8          15.0620     0.2080    22.9050 ha         1 NM0       0.132000
     29 H9          11.8520    -2.0900    21.2330 ha         1 NM0       0.126000
     30 H10          8.2800    -1.8540    20.6920 hn         1 NM0       0.328500
     31 H11          4.5350     2.3480    21.3510 ha         1 NM0       0.130000
     32 H12          3.6980     2.9360    19.0700 ha         1 NM0       0.124000
@<TRIPOS>BOND
     1     1     6 1   
     2     1    18 2   
     3     2     3 1   
     4     2    10 ar  
     5     2    13 ar  
     6     3     4 1   
     7     3    21 1   
     8     3    22 1   
     9     4     9 2   
    10     4    16 1   
    11     5     6 2   
    12     5    16 1   
    13     5    17 1   
    14     6    23 1   
    15     7    18 1   
    16     7    20 2   
    17     7    24 1   
    18     8    17 1   
    19     8    19 2   
    20     8    25 1   
    21    10    11 ar  
    22    10    26 1   
    23    11    12 ar  
    24    11    27 1   
    25    12    14 ar  
    26    12    28 1   
    27    13    14 ar  
    28    13    29 1   
    29    14    15 1   
    30    16    30 1   
    31    17    18 1   
    32    19    20 1   
    33    19    31 1   
    34    20    32 1   
@<TRIPOS>SUBSTRUCTURE
     1 NM0         1 TEMP              0 ****  ****    0 ROOT
