@<TRIPOS>MOLECULE
NM2
   25    24     1     0     0
SMALL
bcc


@<TRIPOS>ATOM
      1 N1           2.2410     0.0620     0.0330 n4         1 NM2      -0.609800
      2 C8           2.3410     0.9090     1.2520 c3         1 NM2       0.105433
      3 O4          -3.8830    -0.8960    -0.0440 o          1 NM2      -0.813800
      4 C5          -2.8920    -0.1390     0.0030 c          1 NM2       0.933600
      5 O7          -2.9090     1.1060     0.0460 o          1 NM2      -0.813800
      6 C6          -1.5200    -0.8400     0.0130 c3         1 NM2      -0.218400
      7 C2           0.9530    -0.7250     0.0280 c3         1 NM2       0.122800
      8 C9           2.3470     0.9150    -1.1810 c3         1 NM2       0.105433
      9 C10          3.3710    -0.9090     0.0330 c3         1 NM2       0.105433
     10 C3          -0.3200     0.0980     0.0210 c3         1 NM2      -0.077400
     11 H21C         0.9990    -1.3660    -0.8540 hx         1 NM2       0.078700
     12 H22C         0.9910    -1.3660     0.9100 hx         1 NM2       0.078700
     13 H81C         2.2250     0.2810     2.1310 hx         1 NM2       0.090256
     14 H82C         3.3170     1.3860     1.2690 hx         1 NM2       0.090256
     15 H83C         1.5690     1.6720     1.2380 hx         1 NM2       0.090256
     16 H91C         1.5820     1.6850    -1.1630 hx         1 NM2       0.090256
     17 H92C         3.3280     1.3840    -1.1960 hx         1 NM2       0.090256
     18 H93C         2.2260     0.2930    -2.0640 hx         1 NM2       0.090256
     19 H101         3.3120    -1.5260    -0.8590 hx         1 NM2       0.090256
     20 H102         4.3100    -0.3620     0.0400 hx         1 NM2       0.090256
     21 H103         3.3040    -1.5340     0.9190 hx         1 NM2       0.090256
     22 H31C        -0.3610     0.7440    -0.8570 hc         1 NM2       0.064700
     23 H32C        -0.3730     0.7440     0.8990 hc         1 NM2       0.064700
     24 H61C        -1.4800    -1.5000     0.8870 hc         1 NM2       0.029700
     25 H62C        -1.4660    -1.5060    -0.8540 hc         1 NM2       0.029700
@<TRIPOS>BOND
     1     1     2 1   
     2     1     7 1   
     3     1     8 1   
     4     1     9 1   
     5     2    13 1   
     6     2    14 1   
     7     2    15 1   
     8     3     4 1   
     9     4     5 1   
    10     4     6 1   
    11     6    10 1   
    12     6    24 1   
    13     6    25 1   
    14     7    10 1   
    15     7    11 1   
    16     7    12 1   
    17     8    16 1   
    18     8    17 1   
    19     8    18 1   
    20     9    19 1   
    21     9    20 1   
    22     9    21 1   
    23    10    22 1   
    24    10    23 1   
@<TRIPOS>SUBSTRUCTURE
     1 NM2         1 TEMP              0 ****  ****    0 ROOT
