@<TRIPOS>MOLECULE
NM2
   25    24     1     0     0
SMALL
No Charge or Current Charge


@<TRIPOS>ATOM
      1 N1           2.2640     0.0490     0.0060 n4         1 NM2      -0.497000
      2 C8           2.3600     1.0470     1.1680 c3         1 NM2       0.077233
      3 O4          -3.3780     0.1390    -1.0430 o          1 NM2      -0.708500
      4 C5          -2.9020    -0.0880     0.0590 c          1 NM2       0.723000
      5 O7          -3.3620     0.3480     1.1030 o          1 NM2      -0.708500
      6 C6          -1.6050    -0.9100     0.1280 c3         1 NM2      -0.218400
      7 C2           0.9590    -0.7560     0.0940 c3         1 NM2       0.094600
      8 C9           2.3400     0.8050    -1.3290 c3         1 NM2       0.077233
      9 C10          3.4470    -0.9230     0.0910 c3         1 NM2       0.077233
     10 C3          -0.3730     0.0210     0.0290 c3         1 NM2      -0.077400
     11 H21C         0.9730    -1.4830    -0.7220 hx         1 NM2       0.078700
     12 H22C         0.9860    -1.3120     1.0340 hx         1 NM2       0.078700
     13 H81C         2.2960     0.5050     2.1140 hx         1 NM2       0.090256
     14 H82C         3.3130     1.5770     1.1110 hx         1 NM2       0.090256
     15 H83C         1.5390     1.7640     1.0980 hx         1 NM2       0.090256
     16 H91C         1.5200     1.5230    -1.3850 hx         1 NM2       0.090256
     17 H92C         3.2940     1.3340    -1.3890 hx         1 NM2       0.090256
     18 H93C         2.2630     0.0910    -2.1510 hx         1 NM2       0.090256
     19 H101         3.3900    -1.6330    -0.7370 hx         1 NM2       0.090256
     20 H102         4.3810    -0.3610     0.0290 hx         1 NM2       0.090256
     21 H103         3.4030    -1.4610     1.0400 hx         1 NM2       0.090256
     22 H31C        -0.4230     0.5830    -0.9120 hc         1 NM2       0.064700
     23 H32C        -0.4090     0.7530     0.8440 hc         1 NM2       0.064700
     24 H61C        -1.5240    -1.4130     1.1000 hc         1 NM2       0.029700
     25 H62C        -1.5380    -1.5910    -0.7290 hc         1 NM2       0.029700
@<TRIPOS>BOND
     1     1     2 1   
     2     1     7 1   
     3     1     8 1   
     4     1     9 1   
     5     2    13 1   
     6     2    14 1   
     7     2    15 1   
     8     3     4 1   
     9     4     5 1   
    10     4     6 1   
    11     6    10 1   
    12     6    24 1   
    13     6    25 1   
    14     7    10 1   
    15     7    11 1   
    16     7    12 1   
    17     8    16 1   
    18     8    17 1   
    19     8    18 1   
    20     9    19 1   
    21     9    20 1   
    22     9    21 1   
    23    10    22 1   
    24    10    23 1   
@<TRIPOS>SUBSTRUCTURE
     1 NM2         1 TEMP              0 ****  ****    0 ROOT
