@<TRIPOS>MOLECULE
NM3
   28    27     1     0     0
SMALL
No Charge or Current Charge


@<TRIPOS>ATOM
      1 N1          -1.8570    -0.1020     0.0330 n4         1 NM3      -0.500000
      2 C8          -1.8840    -0.8690     1.3660 c3         1 NM3       0.077400
      3 O4           3.7670    -0.2600    -1.1320 o          1 NM3      -0.709000
      4 C5           3.3080     0.1580    -0.0790 c          1 NM3       0.724000
      5 O7           3.8040    -0.0640     1.0150 o          1 NM3      -0.709000
      6 C6           1.9910     0.9470    -0.1290 c3         1 NM3      -0.219400
      7 C2          -0.5680     0.7300    -0.0650 c3         1 NM3       0.091600
      8 C9          -1.9270    -1.0980    -1.1360 c3         1 NM3       0.077400
      9 C10         -3.0490     0.8670    -0.0350 c3         1 NM3       0.097600
     10 C11         -4.4670     0.2680     0.0440 c3         1 NM3      -0.120100
     11 C3           0.7840    -0.0150    -0.0200 c3         1 NM3      -0.076400
     12 H81C        -1.8310    -0.1570     2.1910 hx         1 NM3       0.091033
     13 H82C        -2.8100    -1.4440     1.4330 hx         1 NM3       0.091033
     14 H83C        -1.0310    -1.5490     1.4090 hx         1 NM3       0.091033
     15 H21C        -0.6180     1.2910    -1.0010 hx         1 NM3       0.077700
     16 H22C        -0.5880     1.4510     0.7550 hx         1 NM3       0.077700
     17 H91C        -2.8530    -1.6720    -1.0670 hx         1 NM3       0.091033
     18 H92C        -1.9050    -0.5470    -2.0790 hx         1 NM3       0.091033
     19 H93C        -1.0740    -1.7770    -1.0850 hx         1 NM3       0.091033
     20 H101        -2.9320     1.5820     0.7830 hx         1 NM3       0.088700
     21 H102        -2.9620     1.4220    -0.9730 hx         1 NM3       0.088700
     22 H111        -4.6170    -0.2650     0.9900 hc         1 NM3       0.065700
     23 H112        -5.2140     1.0670    -0.0160 hc         1 NM3       0.065700
     24 H113        -4.6480    -0.4270    -0.7830 hc         1 NM3       0.065700
     25 H61C         1.9170     1.6210     0.7340 hc         1 NM3       0.029200
     26 H62C         1.8850     1.4540    -1.0960 hc         1 NM3       0.029200
     27 H31C         0.8290    -0.7410    -0.8400 hc         1 NM3       0.065200
     28 H32C         0.8590    -0.5810     0.9160 hc         1 NM3       0.065200
@<TRIPOS>BOND
     1     1     2 1   
     2     1     7 1   
     3     1     8 1   
     4     1     9 1   
     5     2    12 1   
     6     2    13 1   
     7     2    14 1   
     8     3     4 1   
     9     4     5 1   
    10     4     6 1   
    11     6    11 1   
    12     6    25 1   
    13     6    26 1   
    14     7    11 1   
    15     7    15 1   
    16     7    16 1   
    17     8    17 1   
    18     8    18 1   
    19     8    19 1   
    20     9    10 1   
    21     9    20 1   
    22     9    21 1   
    23    10    22 1   
    24    10    23 1   
    25    10    24 1   
    26    11    27 1   
    27    11    28 1   
@<TRIPOS>SUBSTRUCTURE
     1 NM3         1 TEMP              0 ****  ****    0 ROOT
