@<TRIPOS>MOLECULE
NM3
   28    27     1     0     0
SMALL
bcc


@<TRIPOS>ATOM
      1 N1          -1.8500    -0.1230     0.0130 n4         1 NM3      -0.612800
      2 C8          -1.9010    -0.9720     1.2320 c3         1 NM3       0.105600
      3 O4           3.3380    -1.0250    -0.0380 o          1 NM3      -0.814300
      4 C5           3.2860     0.2190    -0.0270 c          1 NM3       0.934600
      5 O7           4.2540     1.0060    -0.0200 o          1 NM3      -0.814300
      6 C6           1.8930     0.8790    -0.0220 c3         1 NM3      -0.219400
      7 C2          -0.5760     0.6890    -0.0060 c3         1 NM3       0.119800
      8 C9          -1.9290    -0.9840    -1.1970 c3         1 NM3       0.105600
      9 C10         -2.9900     0.8670     0.0220 c3         1 NM3       0.125800
     10 C11         -4.3790     0.2680     0.0270 c3         1 NM3      -0.120100
     11 C3           0.7230    -0.0960    -0.0090 c3         1 NM3      -0.076400
     12 H81C        -1.8310    -0.3380     2.1120 hx         1 NM3       0.091033
     13 H82C        -2.8340    -1.5260     1.2510 hx         1 NM3       0.091033
     14 H83C        -1.0770    -1.6780     1.2180 hx         1 NM3       0.091033
     15 H21C        -0.6370     1.3210    -0.8930 hx         1 NM3       0.077700
     16 H22C        -0.6230     1.3380     0.8700 hx         1 NM3       0.077700
     17 H91C        -2.8550    -1.5500    -1.1820 hx         1 NM3       0.091033
     18 H92C        -1.8950    -0.3560    -2.0840 hx         1 NM3       0.091033
     19 H93C        -1.0960    -1.6790    -1.2030 hx         1 NM3       0.091033
     20 H101        -2.8430     1.4900     0.9040 hx         1 NM3       0.088700
     21 H102        -2.8530     1.4970    -0.8560 hx         1 NM3       0.088700
     22 H111        -4.5780    -0.3410     0.9070 hc         1 NM3       0.065700
     23 H112        -5.0830     1.0990     0.0450 hc         1 NM3       0.065700
     24 H113        -4.5940    -0.3170    -0.8650 hc         1 NM3       0.065700
     25 H61C         1.8310     1.5470     0.8440 hc         1 NM3       0.029200
     26 H62C         1.8210     1.5340    -0.8980 hc         1 NM3       0.029200
     27 H31C         0.7870    -0.7450    -0.8830 hc         1 NM3       0.065200
     28 H32C         0.7980    -0.7340     0.8730 hc         1 NM3       0.065200
@<TRIPOS>BOND
     1     1     2 1   
     2     1     7 1   
     3     1     8 1   
     4     1     9 1   
     5     2    12 1   
     6     2    13 1   
     7     2    14 1   
     8     3     4 1   
     9     4     5 1   
    10     4     6 1   
    11     6    11 1   
    12     6    25 1   
    13     6    26 1   
    14     7    11 1   
    15     7    15 1   
    16     7    16 1   
    17     8    17 1   
    18     8    18 1   
    19     8    19 1   
    20     9    10 1   
    21     9    20 1   
    22     9    21 1   
    23    10    22 1   
    24    10    23 1   
    25    10    24 1   
    26    11    27 1   
    27    11    28 1   
@<TRIPOS>SUBSTRUCTURE
     1 NM3         1 TEMP              0 ****  ****    0 ROOT
