@<TRIPOS>MOLECULE
NM4
   59    63     1     0     0
SMALL
No Charge or Current Charge


@<TRIPOS>ATOM
      1 C1          -7.1720     0.1060     0.7900 ca         1 NM4       0.193100
      2 N1           2.7590     0.5520    -0.8810 nh         1 NM4      -0.836400
      3 O1          -4.4520     2.2720    -0.5350 os         1 NM4      -0.309100
      4 C3          -5.1210     1.1740    -0.0250 ca         1 NM4       0.214100
      5 C4          -5.0830     3.5480    -0.7380 c3         1 NM4       0.146900
      6 N4          -2.0330     0.8240     0.1030 nc         1 NM4      -0.293600
      7 C5          -6.4640    -1.0980     0.9670 ca         1 NM4       0.033000
      8 C6          -5.1000    -1.1680     0.6500 ca         1 NM4      -0.026000
      9 C7          -4.4150    -0.0450     0.1400 ca         1 NM4      -0.082800
     10 C8          -2.9750    -0.1560    -0.1290 cc         1 NM4       0.150400
     11 C11          0.4000     0.8820    -0.3040 cd         1 NM4      -0.213000
     12 C12          1.4380     0.1050    -0.7980 cc         1 NM4       0.360000
     13 C14          4.6240     1.8150    -0.2460 c5         1 NM4      -0.095400
     14 C15          4.7910     0.3970     0.3650 c5         1 NM4       0.157500
     15 C22          3.8280    -0.4420    -0.5470 c5         1 NM4       0.229800
     16 C23          1.1260    -1.2160    -1.3210 cc         1 NM4      -0.198000
     17 C24         -0.1430    -1.7880    -1.3170 cd         1 NM4      -0.070000
     18 Cl          -7.2690    -2.5370     1.5970 cl         1 NM4      -0.190000
     19 O           -8.5170     0.1350     1.1140 os         1 NM4      -0.323100
     20 C           -9.3250     1.3160     0.9690 c3         1 NM4       0.148900
     21 C2          -6.4970     1.2410     0.2940 ca         1 NM4      -0.297000
     22 C10         -0.8950     0.2870    -0.2980 cd         1 NM4      -0.026000
     23 N           -1.1220    -0.9860    -0.7400 na         1 NM4       0.108100
     24 C9          -2.4510    -1.3090    -0.6740 cd         1 NM4      -0.293100
     25 C13          3.0810     1.9030    -0.3390 c5         1 NM4       0.227800
     26 H1           6.2610    -1.0580     0.4240 hn         1 NM4       0.419000
     27 H4          -4.3600     4.2680    -1.1420 h1         1 NM4       0.040700
     28 H5          -5.9120     3.4640    -1.4520 h1         1 NM4       0.040700
     29 H6          -5.4680     3.9480     0.2080 h1         1 NM4       0.040700
     30 H7          -4.5700    -2.1030     0.8140 ha         1 NM4       0.131000
     31 H8           0.5330     1.8920     0.0580 ha         1 NM4       0.141000
     32 H9           5.0420     2.6060     0.3850 hc         1 NM4       0.063700
     33 H10          5.0890     1.8940    -1.2360 hc         1 NM4       0.063700
     34 H11          4.4700     0.3660     1.4160 h1         1 NM4       0.033700
     35 H12          3.4530    -1.3250    -0.0090 h1         1 NM4       0.050200
     36 H13          4.3330    -0.7840    -1.4610 h1         1 NM4       0.050200
     37 H14          1.9320    -1.7890    -1.7620 ha         1 NM4       0.127000
     38 H15         -0.4170    -2.7630    -1.7030 h4         1 NM4       0.140000
     39 H16         -8.9360     2.1330     1.5900 h1         1 NM4       0.043367
     40 H17         -9.3480     1.6470    -0.0770 h1         1 NM4       0.043367
     41 H18        -10.3560     1.1110     1.2830 h1         1 NM4       0.043367
     42 H19         -7.0390     2.1690     0.1570 ha         1 NM4       0.123000
     43 H20         -2.8860    -2.2470    -0.9980 h4         1 NM4       0.229000
     44 H21          2.7530     2.7150    -1.0030 h1         1 NM4       0.050200
     45 H22          2.6470     2.0640     0.6590 h1         1 NM4       0.050200
     46 C17          8.5920     0.0320     0.7940 ca         1 NM4      -0.052300
     47 C18          9.3590     0.3990    -0.3260 ca         1 NM4      -0.155500
     48 C19         10.6280    -0.1750    -0.5120 ca         1 NM4       0.332400
     49 N3          11.1620    -1.0780     0.3450 nb         1 NM4      -0.662000
     50 C21         10.4230    -1.4330     1.4230 ca         1 NM4       0.332400
     51 C25          9.1460    -0.9080     1.6830 ca         1 NM4      -0.155500
     52 H2           7.2460     1.7020     0.7970 h1         1 NM4       0.044200
     53 H3           6.9570     0.5360     2.0970 h1         1 NM4       0.044200
     54 H23          8.9800     1.1170    -1.0480 ha         1 NM4       0.129000
     55 H24         11.2380     0.0950    -1.3730 h4         1 NM4       0.019100
     56 H25         10.8710    -2.1620     2.0980 h4         1 NM4       0.019100
     57 H26          8.6000    -1.2320     2.5640 ha         1 NM4       0.129000
     58 N2           6.2050    -0.0570     0.1980 n7         1 NM4      -0.862400
     59 C16          7.2110     0.6290     1.0310 c3         1 NM4       0.203100
@<TRIPOS>BOND
     1     1     7 ar  
     2     1    19 1   
     3     1    21 ar  
     4     2    12 1   
     5     2    15 1   
     6     2    25 1   
     7     3     4 1   
     8     3     5 1   
     9     4     9 ar  
    10     4    21 ar  
    11     5    27 1   
    12     5    28 1   
    13     5    29 1   
    14     6    10 1   
    15     6    22 2   
    16     7     8 ar  
    17     7    18 1   
    18     8     9 ar  
    19     8    30 1   
    20     9    10 1   
    21    10    24 2   
    22    11    12 2   
    23    11    22 1   
    24    11    31 1   
    25    12    16 1   
    26    13    14 1   
    27    13    25 1   
    28    13    32 1   
    29    13    33 1   
    30    14    15 1   
    31    14    34 1   
    32    14    58 1   
    33    15    35 1   
    34    15    36 1   
    35    16    17 2   
    36    16    37 1   
    37    17    23 1   
    38    17    38 1   
    39    19    20 1   
    40    20    39 1   
    41    20    40 1   
    42    20    41 1   
    43    21    42 1   
    44    22    23 1   
    45    23    24 1   
    46    24    43 1   
    47    25    44 1   
    48    25    45 1   
    49    26    58 1   
    50    46    47 ar  
    51    46    51 ar  
    52    46    59 1   
    53    47    48 ar  
    54    47    54 1   
    55    48    49 ar  
    56    48    55 1   
    57    49    50 ar  
    58    50    51 ar  
    59    50    56 1   
    60    51    57 1   
    61    52    59 1   
    62    53    59 1   
    63    58    59 1   
@<TRIPOS>SUBSTRUCTURE
     1 NM4         1 TEMP              0 ****  ****    0 ROOT
