@<TRIPOS>MOLECULE
NM4
   59    63     1     0     0
SMALL
abcg2


@<TRIPOS>ATOM
      1 C1          -7.3270     0.4160     0.2530 ca         1 NM4       0.193100
      2 N1           2.6770     0.0660     0.4360 nh         1 NM4      -0.836400
      3 O1          -4.2870     2.2560    -0.6380 os         1 NM4      -0.309100
      4 C3          -5.1180     1.2870    -0.2320 ca         1 NM4       0.214100
      5 C4          -4.8140     3.5240    -0.9760 c3         1 NM4       0.146900
      6 N4          -2.1480     0.6370     0.4770 nc         1 NM4      -0.293600
      7 C5          -6.7500    -0.8190     0.5470 ca         1 NM4       0.033000
      8 C6          -5.3830    -0.9900     0.4600 ca         1 NM4      -0.026000
      9 C7          -4.5380     0.0450     0.0730 ca         1 NM4      -0.082800
     10 C8          -3.0960    -0.2030    -0.0320 cc         1 NM4       0.150400
     11 C11          0.3190     0.4800     0.5350 cd         1 NM4      -0.213000
     12 C12          1.4030    -0.3030     0.1720 cc         1 NM4       0.360000
     13 C14          4.5280     1.4300     0.8400 c5         1 NM4      -0.095400
     14 C15          4.9650    -0.0310     0.9140 c5         1 NM4       0.157500
     15 C22          3.8440    -0.7500     0.1640 c5         1 NM4       0.229800
     16 C23          1.1440    -1.5380    -0.5150 cc         1 NM4      -0.198000
     17 C24         -0.1200    -1.9240    -0.7980 cd         1 NM4      -0.070000
     18 CL          -7.7630    -2.1330     1.0390 cl         1 NM4      -0.190000
     19 O           -8.6550     0.5110     0.3670 os         1 NM4      -0.323100
     20 C           -9.2820     1.7480     0.0790 c3         1 NM4       0.148900
     21 C2          -6.4970     1.4650    -0.1360 ca         1 NM4      -0.297000
     22 C10         -0.9880     0.0580     0.2280 cd         1 NM4      -0.026000
     23 N           -1.1700    -1.1430    -0.4330 na         1 NM4       0.108100
     24 C9          -2.5260    -1.3110    -0.6020 cd         1 NM4      -0.293100
     25 C13          3.0190     1.3500     1.0160 c5         1 NM4       0.227800
     26 H1           6.3980    -1.2890     0.2490 hn         1 NM4       0.419000
     27 H4          -3.9660     4.1390    -1.2640 h1         1 NM4       0.040700
     28 H5          -5.5090     3.4690    -1.8170 h1         1 NM4       0.040700
     29 H6          -5.3180     3.9960    -0.1290 h1         1 NM4       0.040700
     30 H7          -4.9550    -1.9520     0.7130 ha         1 NM4       0.131000
     31 H8           0.4340     1.4150     1.0620 ha         1 NM4       0.141000
     32 H9           4.9920     2.0670     1.5930 hc         1 NM4       0.063700
     33 H10          4.7800     1.8280    -0.1470 hc         1 NM4       0.063700
     34 H11          4.9360    -0.3470     1.9690 h1         1 NM4       0.033700
     35 H12          3.7130    -1.7760     0.5160 h1         1 NM4       0.050200
     36 H13          4.0780    -0.7880    -0.9070 h1         1 NM4       0.050200
     37 H14          1.9520    -2.1810    -0.8300 ha         1 NM4       0.127000
     38 H15         -0.3520    -2.8430    -1.3170 h4         1 NM4       0.140000
     39 H16         -8.9390     2.5420     0.7460 h1         1 NM4       0.043367
     40 H17         -9.1170     2.0550    -0.9570 h1         1 NM4       0.043367
     41 H18        -10.3470     1.5930     0.2340 h1         1 NM4       0.043367
     42 H19         -6.9340     2.4220    -0.3810 ha         1 NM4       0.123000
     43 H20         -2.9430    -2.1630    -1.1110 h4         1 NM4       0.229000
     44 H21          2.5020     2.1660     0.5040 h1         1 NM4       0.050200
     45 H22          2.7320     1.3980     2.0730 h1         1 NM4       0.050200
     46 C17          8.6570     0.1450     0.2520 ca         1 NM4      -0.052300
     47 C18          8.7040     0.0530    -1.1350 ca         1 NM4      -0.155500
     48 C19          9.9370    -0.0560    -1.7610 ca         1 NM4       0.332400
     49 N3          11.0960    -0.0810    -1.1130 nb         1 NM4      -0.662000
     50 C21         11.0490     0.0030     0.2120 ca         1 NM4       0.332400
     51 C25          9.8700     0.1120     0.9320 ca         1 NM4      -0.155500
     52 H2           7.1760     1.3860     1.0950 h1         1 NM4       0.044200
     53 H3           7.4900    -0.0620     2.0260 h1         1 NM4       0.044200
     54 H23          7.7970     0.0630    -1.7230 ha         1 NM4       0.129000
     55 H24          9.9860    -0.1260    -2.8420 h4         1 NM4       0.019100
     56 H25         12.0000    -0.0230     0.7340 h4         1 NM4       0.019100
     57 H26          9.9030     0.1670     2.0130 ha         1 NM4       0.129000
     58 N2           6.2490    -0.2870     0.2980 n7         1 NM4      -0.862400
     59 C16          7.3630     0.3120     0.9990 c3         1 NM4       0.203100
@<TRIPOS>BOND
     1     1     7 ar  
     2     1    19 1   
     3     1    21 ar  
     4     2    12 1   
     5     2    15 1   
     6     2    25 1   
     7     3     4 1   
     8     3     5 1   
     9     4     9 ar  
    10     4    21 ar  
    11     5    27 1   
    12     5    28 1   
    13     5    29 1   
    14     6    10 1   
    15     6    22 2   
    16     7     8 ar  
    17     7    18 1   
    18     8     9 ar  
    19     8    30 1   
    20     9    10 1   
    21    10    24 2   
    22    11    12 2   
    23    11    22 1   
    24    11    31 1   
    25    12    16 1   
    26    13    14 1   
    27    13    25 1   
    28    13    32 1   
    29    13    33 1   
    30    14    15 1   
    31    14    34 1   
    32    14    58 1   
    33    15    35 1   
    34    15    36 1   
    35    16    17 2   
    36    16    37 1   
    37    17    23 1   
    38    17    38 1   
    39    19    20 1   
    40    20    39 1   
    41    20    40 1   
    42    20    41 1   
    43    21    42 1   
    44    22    23 1   
    45    23    24 1   
    46    24    43 1   
    47    25    44 1   
    48    25    45 1   
    49    26    58 1   
    50    46    47 ar  
    51    46    51 ar  
    52    46    59 1   
    53    47    48 ar  
    54    47    54 1   
    55    48    49 ar  
    56    48    55 1   
    57    49    50 ar  
    58    50    51 ar  
    59    50    56 1   
    60    51    57 1   
    61    52    59 1   
    62    53    59 1   
    63    58    59 1   
@<TRIPOS>SUBSTRUCTURE
     1 NM4         1 TEMP              0 ****  ****    0 ROOT
