@<TRIPOS>MOLECULE
NM6
   40    40     1     0     0
SMALL
abcg2


@<TRIPOS>ATOM
      1 O4          -2.8330    23.4960   -13.4190 oh         1 NM6      -0.725000
      2 C3A         -2.0360    25.1890   -16.1200 c3         1 NM6       0.109300
      3 C1          -0.2540    26.2970   -11.8060 c6         1 NM6       0.385300
      4 C3B         -1.9890    24.1560   -17.2250 c3         1 NM6      -0.086100
      5 C2          -0.0890    26.0150   -13.3020 c6         1 NM6       0.073700
      6 C3C         -1.7170    26.5850   -16.6710 c          1 NM6       0.568100
      7 C3          -1.3120    25.2620   -13.8320 c6         1 NM6       0.159300
      8 C4          -1.6210    24.0480   -12.9660 c6         1 NM6       0.125300
      9 N3A         -2.6030    27.5390   -16.3560 nt         1 NM6      -0.620000
     10 O7           2.1780    26.7780   -14.8360 o          1 NM6      -0.578100
     11 O3B         -0.7150    26.7880   -17.3390 o          1 NM6      -0.578100
     12 O3          -1.0620    24.8520   -15.1550 os         1 NM6      -0.422000
     13 C5          -1.7180    24.4850   -11.4990 c6         1 NM6       0.154300
     14 C6          -2.0220    23.3530   -10.5410 c3         1 NM6       0.166600
     15 C7           1.2270    27.5370   -14.7340 c          1 NM6       0.622100
     16 C8           1.1980    28.9000   -15.3810 c3         1 NM6      -0.178100
     17 N2           0.1150    27.2380   -14.0300 ns         1 NM6      -0.506900
     18 O6          -1.0650    22.3320   -10.6870 oh         1 NM6      -0.708000
     19 O5          -0.5040    25.0980   -11.1150 os         1 NM6      -0.467000
     20 O1           0.9170    26.8420   -11.3300 oh         1 NM6      -0.616000
     21 H4          -0.7930    23.3360   -13.0720 h1         1 NM6       0.086700
     22 HAQ         -3.0360    25.1840   -15.6710 h1         1 NM6       0.041700
     23 HAT1        -2.2300    23.1710   -16.8250 hc         1 NM6       0.054367
     24 HAT2        -2.7180    24.3920   -18.0000 hc         1 NM6       0.054367
     25 HAT3        -1.0040    24.1150   -17.6880 hc         1 NM6       0.054367
     26 H1          -1.1090    26.9820   -11.6600 h2         1 NM6       0.001700
     27 H2           0.7970    25.3890   -13.4320 h1         1 NM6       0.130700
     28 HO1          0.7450    27.2910   -10.4960 ho         1 NM6       0.454000
     29 H3          -2.1810    25.9370   -13.7890 h1         1 NM6       0.031700
     30 HN2         -0.6300    27.9180   -14.0040 hn         1 NM6       0.297500
     31 HAS1        -2.4690    28.4870   -16.6710 hn         1 NM6       0.309500
     32 HAS2        -3.4200    27.3460   -15.8040 hn         1 NM6       0.309500
     33 H5          -2.5520    25.2020   -11.4060 h1         1 NM6       0.036700
     34 H61         -2.0370    23.7590    -9.5210 h1         1 NM6       0.029700
     35 H62         -3.0380    22.9990   -10.7490 h1         1 NM6       0.029700
     36 HO6         -1.3230    21.5950   -10.1260 ho         1 NM6       0.505000
     37 H81          2.1400    29.0970   -15.8880 hc         1 NM6       0.059700
     38 H82          0.3900    28.9610   -16.1100 hc         1 NM6       0.059700
     39 H83          1.0300    29.6800   -14.6380 hc         1 NM6       0.059700
     40 HO4         -2.8490    22.5590   -13.2030 ho         1 NM6       0.515000
@<TRIPOS>BOND
     1     1     8 1   
     2     1    40 1   
     3     2     4 1   
     4     2     6 1   
     5     2    12 1   
     6     2    22 1   
     7     3     5 1   
     8     3    19 1   
     9     3    20 1   
    10     3    26 1   
    11     4    23 1   
    12     4    24 1   
    13     4    25 1   
    14     5     7 1   
    15     5    17 1   
    16     5    27 1   
    17     6     9 1   
    18     6    11 2   
    19     7     8 1   
    20     7    12 1   
    21     7    29 1   
    22     8    13 1   
    23     8    21 1   
    24     9    31 1   
    25     9    32 1   
    26    10    15 2   
    27    13    14 1   
    28    13    19 1   
    29    13    33 1   
    30    14    18 1   
    31    14    34 1   
    32    14    35 1   
    33    15    16 1   
    34    15    17 1   
    35    16    37 1   
    36    16    38 1   
    37    16    39 1   
    38    17    30 1   
    39    18    36 1   
    40    20    28 1   
@<TRIPOS>SUBSTRUCTURE
     1 NM6         1 TEMP              0 ****  ****    0 ROOT
