@<TRIPOS>MOLECULE
NM6
   40    40     1     0     0
SMALL
No Charge or Current Charge


@<TRIPOS>ATOM
      1 O4          -2.8790    23.5970   -13.6110 oh         1 NM6      -0.725000
      2 C3A         -2.1330    25.1580   -16.1700 c3         1 NM6       0.109300
      3 C1          -0.3510    26.3990   -11.6600 c6         1 NM6       0.385300
      4 C3B         -1.9260    23.8250   -16.9240 c3         1 NM6      -0.086100
      5 C2          -0.0520    26.2030   -13.1760 c6         1 NM6       0.073700
      6 C3C         -2.2550    26.3920   -17.1180 c          1 NM6       0.568100
      7 C3          -1.2900    25.5280   -13.8430 c6         1 NM6       0.159300
      8 C4          -1.6770    24.2060   -13.0810 c6         1 NM6       0.125300
      9 N3A         -2.2480    27.6100   -16.5220 nt         1 NM6      -0.620000
     10 O7           1.8780    26.7090   -15.2930 o          1 NM6      -0.578100
     11 O3B         -2.3740    26.3190   -18.3320 o          1 NM6      -0.578100
     12 O3          -1.0180    25.3080   -15.2540 os         1 NM6      -0.422000
     13 C5          -1.8360    24.5080   -11.5540 c6         1 NM6       0.154300
     14 C6          -2.0980    23.2240   -10.6950 c3         1 NM6       0.166600
     15 C7           1.2140    27.6370   -14.8580 c          1 NM6       0.622100
     16 C8           1.3470    29.0590   -15.3880 c3         1 NM6      -0.178100
     17 N2           0.2990    27.4870   -13.8410 ns         1 NM6      -0.506900
     18 O6          -1.0290    22.2590   -10.7580 oh         1 NM6      -0.708000
     19 O5          -0.6390    25.1440   -11.0470 os         1 NM6      -0.467000
     20 O1           0.7780    26.8900   -10.9680 oh         1 NM6      -0.616000
     21 H4          -0.8300    23.5120   -13.1950 h1         1 NM6       0.086700
     22 HAQ         -3.0820    25.1050   -15.6230 h1         1 NM6       0.041700
     23 HAT1        -1.8450    22.9900   -16.2200 hc         1 NM6       0.054367
     24 HAT2        -2.7730    23.6250   -17.5920 hc         1 NM6       0.054367
     25 HAT3        -1.0110    23.8590   -17.5280 hc         1 NM6       0.054367
     26 H1          -1.2000    27.0830   -11.5190 h2         1 NM6       0.001700
     27 H2           0.8020    25.5160   -13.2580 h1         1 NM6       0.130700
     28 HO1          0.7890    26.3550   -10.1480 ho         1 NM6       0.454000
     29 H3          -2.1320    26.2320   -13.7650 h1         1 NM6       0.031700
     30 HN2         -0.1610    28.3320   -13.5250 hn         1 NM6       0.297500
     31 HAS1        -2.3320    28.4400   -17.0900 hn         1 NM6       0.309500
     32 HAS2        -2.1390    27.6770   -15.5220 hn         1 NM6       0.309500
     33 H5          -2.6840    25.1930   -11.4060 h1         1 NM6       0.036700
     34 H61         -2.2470    23.5470    -9.6560 h1         1 NM6       0.029700
     35 H62         -3.0410    22.7680   -11.0230 h1         1 NM6       0.029700
     36 HO6         -1.2150    21.5780   -10.0700 ho         1 NM6       0.505000
     37 H81          2.0890    29.1420   -16.1890 hc         1 NM6       0.059700
     38 H82          0.3620    29.4130   -15.7100 hc         1 NM6       0.059700
     39 H83          1.5760    29.7310   -14.5530 hc         1 NM6       0.059700
     40 HO4         -2.8280    22.6330   -13.4120 ho         1 NM6       0.515000
@<TRIPOS>BOND
     1     1     8 1   
     2     1    40 1   
     3     2     4 1   
     4     2     6 1   
     5     2    12 1   
     6     2    22 1   
     7     3     5 1   
     8     3    19 1   
     9     3    20 1   
    10     3    26 1   
    11     4    23 1   
    12     4    24 1   
    13     4    25 1   
    14     5     7 1   
    15     5    17 1   
    16     5    27 1   
    17     6     9 1   
    18     6    11 2   
    19     7     8 1   
    20     7    12 1   
    21     7    29 1   
    22     8    13 1   
    23     8    21 1   
    24     9    31 1   
    25     9    32 1   
    26    10    15 2   
    27    13    14 1   
    28    13    19 1   
    29    13    33 1   
    30    14    18 1   
    31    14    34 1   
    32    14    35 1   
    33    15    16 1   
    34    15    17 1   
    35    16    37 1   
    36    16    38 1   
    37    16    39 1   
    38    17    30 1   
    39    18    36 1   
    40    20    28 1   
@<TRIPOS>SUBSTRUCTURE
     1 NM6         1 TEMP              0 ****  ****    0 ROOT
