@<TRIPOS>MOLECULE
NM7
   29    30     1     0     0
SMALL
bcc


@<TRIPOS>ATOM
      1 NAA          4.7750    -2.0750     0.2600 nt         1 NM7      -0.670000
      2 NAB          2.0060     3.6100    -0.3520 nt         1 NM7      -0.660000
      3 OAC          2.5900    -2.6950     0.2910 o          1 NM7      -0.629100
      4 OAD          3.6810     2.1280    -0.1330 o          1 NM7      -0.666100
      5 CAF         -4.0130    -1.3300    -0.4010 ca         1 NM7      -0.166000
      6 CAG         -4.2980     0.8880     0.5090 ca         1 NM7      -0.166000
      7 CAH         -2.6400    -1.1380    -0.4140 ca         1 NM7      -0.098500
      8 CAI         -2.9240     1.0590     0.5020 ca         1 NM7      -0.098500
      9 CAJ          0.0540     1.4380    -0.0930 cc         1 NM7      -0.087000
     10 NAK          3.1200    -0.5030     0.0990 ns         1 NM7      -0.465100
     11 SAL          0.4680    -1.0810     0.1520 ss         1 NM7       0.025200
     12 CAM          3.4540    -1.8320     0.2160 c          1 NM7       0.790100
     13 CAO         -4.8210    -0.3090     0.0580 ca         1 NM7       0.133900
     14 CAP         -2.0700     0.0560     0.0350 ca         1 NM7      -0.012000
     15 CAQ         -0.6250     0.2680     0.0170 cd         1 NM7      -0.072100
     16 CAR          1.4720     1.2870    -0.0750 cc         1 NM7      -0.288600
     17 CAS          1.8390    -0.0410     0.0510 cd         1 NM7       0.171500
     18 HNAA         5.4610    -1.3640     0.0710 hn         1 NM7       0.326500
     19 HNAB         5.0900    -3.0290     0.2490 hn         1 NM7       0.326500
     20 HNAC         2.6560     4.3730    -0.4510 hn         1 NM7       0.316000
     21 HNAD         1.0300     3.8300    -0.4340 hn         1 NM7       0.316000
     22 HAF         -4.4430    -2.2570    -0.7550 ha         1 NM7       0.150000
     23 HAG         -4.9490     1.6720     0.8730 ha         1 NM7       0.150000
     24 HAH         -2.0140    -1.9340    -0.7980 ha         1 NM7       0.137000
     25 HAI         -2.5130     1.9850     0.8840 ha         1 NM7       0.137000
     26 HAJ         -0.4560     2.3860    -0.2030 ha         1 NM7       0.141000
     27 HNAK         3.8200     0.2340     0.0460 hn         1 NM7       0.372500
     28 CAN          2.4700     2.3640    -0.1890 c          1 NM7       0.724700
     29 FAE         -6.1520    -0.4830     0.0700 f          1 NM7      -0.143900
@<TRIPOS>BOND
     1     1    12 1   
     2     1    18 1   
     3     1    19 1   
     4     2    20 1   
     5     2    21 1   
     6     2    28 1   
     7     3    12 2   
     8     4    28 2   
     9     5     7 ar  
    10     5    13 ar  
    11     5    22 1   
    12     6     8 ar  
    13     6    13 ar  
    14     6    23 1   
    15     7    14 ar  
    16     7    24 1   
    17     8    14 ar  
    18     8    25 1   
    19     9    15 2   
    20     9    16 1   
    21     9    26 1   
    22    10    12 1   
    23    10    17 1   
    24    10    27 1   
    25    11    15 1   
    26    11    17 1   
    27    13    29 1   
    28    14    15 1   
    29    16    17 2   
    30    16    28 1   
@<TRIPOS>SUBSTRUCTURE
     1 NM7         1 TEMP              0 ****  ****    0 ROOT
