@<TRIPOS>MOLECULE
NM7
   29    30     1     0     0
SMALL
No Charge or Current Charge


@<TRIPOS>ATOM
      1 NAA          4.9990    -1.9130    -0.0300 nt         1 NM7      -0.603000
      2 NAB          1.9690     3.5230     0.0420 nt         1 NM7      -0.593000
      3 OAC          2.9920    -2.8810    -0.0400 o          1 NM7      -0.629100
      4 OAD          3.6850     2.1250     0.0220 o          1 NM7      -0.666100
      5 CAF         -4.1630    -1.3410    -0.0120 ca         1 NM7      -0.148000
      6 CAG         -4.3760     1.0760     0.0180 ca         1 NM7      -0.148000
      7 CAH         -2.7610    -1.2200    -0.0120 ca         1 NM7      -0.080500
      8 CAI         -2.9750     1.2010     0.0180 ca         1 NM7      -0.080500
      9 CAJ          0.0670     1.3480     0.0170 cc         1 NM7      -0.069000
     10 NAK          3.1550    -0.5890    -0.0110 ns         1 NM7      -0.398100
     11 SAL          0.4060    -1.2360    -0.0160 ss         1 NM7       0.315000
     12 CAM          3.6580    -1.8630    -0.0280 c          1 NM7       0.656100
     13 CAO         -4.9660    -0.1940     0.0030 ca         1 NM7       0.169000
     14 CAP         -2.1450     0.0550     0.0030 ca         1 NM7      -0.012000
     15 CAQ         -0.6680     0.1840     0.0030 cd         1 NM7      -0.217000
     16 CAR          1.4850     1.1630     0.0130 cc         1 NM7      -0.288600
     17 CAS          1.8330    -0.1700    -0.0040 cd         1 NM7       0.026600
     18 HNAA         5.5520    -1.0690    -0.0200 hn         1 NM7       0.326500
     19 HNAB         5.4500    -2.8150    -0.0420 hn         1 NM7       0.326500
     20 HNAC         2.6030     4.3070     0.0510 hn         1 NM7       0.316000
     21 HNAD         0.9730     3.6650     0.0450 hn         1 NM7       0.316000
     22 HAF         -4.6260    -2.3250    -0.0240 ha         1 NM7       0.132000
     23 HAG         -5.0030     1.9640     0.0300 ha         1 NM7       0.132000
     24 HAH         -2.1680    -2.1290    -0.0240 ha         1 NM7       0.119000
     25 HAI         -2.5470     2.1990     0.0300 ha         1 NM7       0.119000
     26 HAJ         -0.3820     2.3350     0.0300 ha         1 NM7       0.123000
     27 HNAK         3.8600     0.1410    -0.0030 hn         1 NM7       0.372500
     28 CAN          2.4730     2.2760     0.0250 c          1 NM7       0.657700
     29 FAE         -6.3110    -0.3120     0.0030 f          1 NM7      -0.179000
@<TRIPOS>BOND
     1     1    12 1   
     2     1    18 1   
     3     1    19 1   
     4     2    20 1   
     5     2    21 1   
     6     2    28 1   
     7     3    12 2   
     8     4    28 2   
     9     5     7 ar  
    10     5    13 ar  
    11     5    22 1   
    12     6     8 ar  
    13     6    13 ar  
    14     6    23 1   
    15     7    14 ar  
    16     7    24 1   
    17     8    14 ar  
    18     8    25 1   
    19     9    15 2   
    20     9    16 1   
    21     9    26 1   
    22    10    12 1   
    23    10    17 1   
    24    10    27 1   
    25    11    15 1   
    26    11    17 1   
    27    13    29 1   
    28    14    15 1   
    29    16    17 2   
    30    16    28 1   
@<TRIPOS>SUBSTRUCTURE
     1 NM7         1 TEMP              0 ****  ****    0 ROOT
