@<TRIPOS>MOLECULE
NM8
   74    79     1     0     0
SMALL
abcg2


@<TRIPOS>ATOM
      1 CAA         -0.9290     0.6030    -0.0350 ca         1 NM8      -0.092000
      2 CAB         -1.0720    -0.6870    -0.6070 ca         1 NM8       0.013000
      3 CAC         -2.3870    -1.1980    -0.7660 ca         1 NM8      -0.051000
      4 CAD         -3.4980    -0.4190    -0.3800 ca         1 NM8      -0.061000
      5 CAE         -3.3340     0.8350     0.1630 ca         1 NM8      -0.133500
      6 CAF         -2.0190     1.3340     0.3370 ca         1 NM8      -0.084000
      7 CAG         -4.4630     1.6480     0.5590 cc         1 NM8       0.228500
      8 CAH         -4.5640     2.9160     1.0670 cd         1 NM8      -0.181000
      9 CAI         -5.9390     3.1680     1.2480 cd         1 NM8      -0.117000
     10 CAJ         -6.5970     2.0380     0.8400 cc         1 NM8       0.133800
     11 OAK         -5.6930     1.1210     0.4240 os         1 NM8      -0.225000
     12 CAL         -7.9760     1.7120     0.7920 ce         1 NM8      -0.131800
     13 CAM         -8.5160     0.5530     0.3740 cd         1 NM8      -0.125600
     14 CAN         -9.9750     0.3340     0.3700 c          1 NM8       0.587200
     15 NAO        -10.2460    -0.9300    -0.1020 ns         1 NM8      -0.479500
     16 CAP         -9.2000    -1.7290    -0.4690 c          1 NM8       0.588600
     17 SAQ         -7.6690    -0.8630    -0.2200 ss         1 NM8      -0.154200
     18 OAR        -10.8170     1.1260     0.7220 o          1 NM8      -0.490000
     19 OAS         -9.2710    -2.8480    -0.8970 o          1 NM8      -0.468000
     20 CAT          0.0240    -1.5090    -0.9910 ca         1 NM8      -0.146600
     21 CAU         -0.2030    -2.7660    -1.5000 ca         1 NM8      -0.073000
     22 CAV         -1.5090    -3.2590    -1.6680 ca         1 NM8      -0.119000
     23 CAW         -2.5790    -2.4900    -1.3090 ca         1 NM8      -0.066000
     24 CAX          1.4290    -1.0010    -0.9290 c          1 NM8       0.619700
     25 OAY          1.7470     0.0800    -1.3920 o          1 NM8      -0.564100
     26 NAZ          2.2930    -1.8640    -0.3360 ns         1 NM8      -0.145000
     27 HAA          0.0520     1.0260     0.1210 ha         1 NM8       0.137000
     28 HAD         -4.4850    -0.8390    -0.5260 ha         1 NM8       0.132000
     29 HAF         -1.8660     2.3110     0.7760 ha         1 NM8       0.120000
     30 HAH         -3.7520     3.5910     1.2820 ha         1 NM8       0.149000
     31 HAI         -6.3980     4.0660     1.6290 ha         1 NM8       0.149000
     32 HAL         -8.6530     2.4880     1.1310 ha         1 NM8       0.217000
     33 HNAO       -11.1980    -1.2670    -0.1840 hn         1 NM8       0.352500
     34 HAU          0.6300    -3.3860    -1.8090 ha         1 NM8       0.119000
     35 HAV         -1.6580    -4.2440    -2.0870 ha         1 NM8       0.124000
     36 HAW         -3.5880    -2.8600    -1.4370 ha         1 NM8       0.124000
     37 HNAZ         1.8780    -2.6820     0.0850 hn         1 NM8       0.158000
     38 C20          4.4580    -0.7460    -0.7220 ca         1 NM8      -0.087000
     39 C21          3.6780    -1.7660    -0.1880 ca         1 NM8      -0.028000
     40 C22          4.2910    -2.7890     0.5450 ca         1 NM8      -0.121000
     41 C23          5.6580    -2.7780     0.7310 ca         1 NM8      -0.169300
     42 C24          6.4400    -1.7610     0.1910 ca         1 NM8      -0.091000
     43 C25          5.8390    -0.7500    -0.5390 ca         1 NM8      -0.061300
     44 C26          6.3360    -3.8590     1.5140 c3         1 NM8       0.357300
     45 F1           5.4770    -4.7340     2.0450 f          1 NM8      -0.113667
     46 F2           7.1860    -4.5600     0.7510 f          1 NM8      -0.113667
     47 F3           7.0580    -3.3560     2.5250 f          1 NM8      -0.113667
     48 C27          6.6660     0.3480    -1.1560 c3         1 NM8       0.211100
     49 N3           6.1680     1.6630    -0.8160 n3         1 NM8      -0.716600
     50 C28          6.7990     2.6950    -1.6160 c6         1 NM8       0.163800
     51 C29          6.3290     1.9560     0.5950 c6         1 NM8       0.163800
     52 C30          5.7750     3.3280     0.9270 c6         1 NM8       0.163800
     53 N4           6.4200     4.3550     0.1330 n3         1 NM8      -0.720600
     54 C31          6.2370     4.0610    -1.2750 c6         1 NM8       0.163800
     55 C32          5.9460     5.6770     0.5010 c3         1 NM8       0.169800
     56 C33          6.7470     6.8050    -0.1280 c3         1 NM8      -0.091100
     57 H13          3.6800    -3.5790     0.9620 ha         1 NM8       0.127000
     58 H14          7.5130    -1.7450     0.3410 ha         1 NM8       0.129000
     59 H15          7.7220     0.2150    -0.8660 h1         1 NM8       0.043200
     60 H16          6.6300     0.2450    -2.2450 h1         1 NM8       0.043200
     61 H17          7.8940     2.7100    -1.4730 h1         1 NM8       0.039200
     62 H18          6.6170     2.4890    -2.6740 h1         1 NM8       0.039200
     63 H19          5.7940     1.2090     1.1850 h1         1 NM8       0.039200
     64 H20          7.3900     1.9090     0.8970 h1         1 NM8       0.039200
     65 H21          4.6810     3.3220     0.7740 h1         1 NM8       0.038950
     66 H22          5.9490     3.5300     1.9860 h1         1 NM8       0.038950
     67 H23          6.7550     4.8050    -1.8820 h1         1 NM8       0.038950
     68 H24          5.1700     4.0980    -1.5600 h1         1 NM8       0.038950
     69 H25          4.8780     5.8030     0.2550 h1         1 NM8       0.028700
     70 H26          6.0220     5.7600     1.5890 h1         1 NM8       0.028700
     71 H27          6.4220     7.7630     0.2800 hc         1 NM8       0.037033
     72 H28          7.8110     6.6920     0.0840 hc         1 NM8       0.037033
     73 H29          6.6220     6.8570    -1.2100 hc         1 NM8       0.037033
     74 H12          4.0100     0.0640    -1.2740 ha         1 NM8       0.166000
@<TRIPOS>BOND
     1     1     2 ar  
     2     1     6 ar  
     3     1    27 1   
     4     2     3 ar  
     5     2    20 ar  
     6     3     4 ar  
     7     3    23 ar  
     8     4     5 ar  
     9     4    28 1   
    10     5     6 ar  
    11     5     7 1   
    12     6    29 1   
    13     7     8 2   
    14     7    11 1   
    15     8     9 1   
    16     8    30 1   
    17     9    10 2   
    18     9    31 1   
    19    10    11 1   
    20    10    12 1   
    21    12    13 2   
    22    12    32 1   
    23    13    14 1   
    24    13    17 1   
    25    14    15 1   
    26    14    18 2   
    27    15    16 1   
    28    15    33 1   
    29    16    17 1   
    30    16    19 2   
    31    20    21 ar  
    32    20    24 1   
    33    21    22 ar  
    34    21    34 1   
    35    22    23 ar  
    36    22    35 1   
    37    23    36 1   
    38    24    25 2   
    39    24    26 1   
    40    26    37 1   
    41    26    39 1   
    42    38    39 ar  
    43    38    43 ar  
    44    38    74 1   
    45    39    40 ar  
    46    40    41 ar  
    47    40    57 1   
    48    41    42 ar  
    49    41    44 1   
    50    42    43 ar  
    51    42    58 1   
    52    43    48 1   
    53    44    45 1   
    54    44    46 1   
    55    44    47 1   
    56    48    49 1   
    57    48    59 1   
    58    48    60 1   
    59    49    50 1   
    60    49    51 1   
    61    50    54 1   
    62    50    61 1   
    63    50    62 1   
    64    51    52 1   
    65    51    63 1   
    66    51    64 1   
    67    52    53 1   
    68    52    65 1   
    69    52    66 1   
    70    53    54 1   
    71    53    55 1   
    72    54    67 1   
    73    54    68 1   
    74    55    56 1   
    75    55    69 1   
    76    55    70 1   
    77    56    71 1   
    78    56    72 1   
    79    56    73 1   
@<TRIPOS>SUBSTRUCTURE
     1 NM8         1 TEMP              0 ****  ****    0 ROOT
