@<TRIPOS>MOLECULE
NM8
   74    79     1     0     0
SMALL
No Charge or Current Charge


@<TRIPOS>ATOM
      1 CAA         -1.1170     0.4680    -0.7630 ca         1 NM8      -0.092000
      2 CAB         -1.1950    -0.9430    -0.6710 ca         1 NM8       0.013000
      3 CAC         -2.4700    -1.5210    -0.4500 ca         1 NM8      -0.051000
      4 CAD         -3.6220    -0.7150    -0.3660 ca         1 NM8      -0.061000
      5 CAE         -3.5380     0.6860    -0.4850 ca         1 NM8      -0.133500
      6 CAF         -2.2700     1.2670    -0.6760 ca         1 NM8      -0.084000
      7 CAG         -4.7570     1.5000    -0.3920 cc         1 NM8       0.228500
      8 CAH         -4.8470     2.8540    -0.5510 cd         1 NM8      -0.181000
      9 CAI         -6.2110     3.1720    -0.3770 cd         1 NM8      -0.117000
     10 CAJ         -6.8840     2.0030    -0.1230 cc         1 NM8       0.133800
     11 OAK         -5.9900     0.9540    -0.1310 os         1 NM8      -0.225000
     12 CAL         -8.3040     1.7740     0.1270 ce         1 NM8      -0.131800
     13 CAM         -9.0570     0.6450     0.3840 cd         1 NM8      -0.125600
     14 CAN        -10.5170     0.6130     0.6160 c          1 NM8       0.587200
     15 NAO        -10.8780    -0.6780     0.8320 ns         1 NM8      -0.479500
     16 CAP         -9.9820    -1.7020     0.8190 c          1 NM8       0.588600
     17 SAQ         -8.3540    -0.9760     0.4750 ss         1 NM8      -0.154200
     18 OAR        -11.2890     1.5570     0.6200 o          1 NM8      -0.490000
     19 OAS        -10.2490    -2.8770     1.0060 o          1 NM8      -0.468000
     20 CAT         -0.0440    -1.7870    -0.7560 ca         1 NM8      -0.146600
     21 CAU         -0.2130    -3.1840    -0.5860 ca         1 NM8      -0.073000
     22 CAV         -1.4800    -3.7380    -0.3610 ca         1 NM8      -0.119000
     23 CAW         -2.6070    -2.9120    -0.3000 ca         1 NM8      -0.066000
     24 CAX          1.3510    -1.2620    -1.0470 c          1 NM8       0.619700
     25 OAY          1.5590    -0.3580    -1.8480 o          1 NM8      -0.564100
     26 NAZ          2.3730    -1.9580    -0.4100 ns         1 NM8      -0.145000
     27 HAA         -0.1690     0.9800    -0.8840 ha         1 NM8       0.137000
     28 HAD         -4.5900    -1.1850    -0.2040 ha         1 NM8       0.132000
     29 HAF         -2.1580     2.3450    -0.7520 ha         1 NM8       0.120000
     30 HAH         -4.0430     3.5490    -0.7690 ha         1 NM8       0.149000
     31 HAI         -6.6550     4.1610    -0.4340 ha         1 NM8       0.149000
     32 HAL         -8.8850     2.6970     0.1030 ha         1 NM8       0.217000
     33 HNAO       -11.8480    -0.8860     1.0100 hn         1 NM8       0.352500
     34 HAU          0.6350    -3.8620    -0.6590 ha         1 NM8       0.119000
     35 HAV         -1.5900    -4.8140    -0.2440 ha         1 NM8       0.124000
     36 HAW         -3.5860    -3.3540    -0.1290 ha         1 NM8       0.124000
     37 HNAZ         2.0490    -2.7050     0.1890 hn         1 NM8       0.158000
     38 C20          4.4420    -0.6770    -0.9660 ca         1 NM8      -0.087000
     39 C21          3.7870    -1.8010    -0.4170 ca         1 NM8      -0.028000
     40 C22          4.5580    -2.8180     0.1770 ca         1 NM8      -0.121000
     41 C23          5.9660    -2.7350     0.2240 ca         1 NM8      -0.169300
     42 C24          6.6010    -1.6130    -0.3480 ca         1 NM8      -0.091000
     43 C25          5.8450    -0.5830    -0.9370 ca         1 NM8      -0.061300
     44 C26          6.7960    -3.8570     0.8620 c3         1 NM8       0.357300
     45 F1           6.1290    -4.4920     1.8540 f          1 NM8      -0.113667
     46 F2           7.1350    -4.7960    -0.0490 f          1 NM8      -0.113667
     47 F3           7.9470    -3.4000     1.4060 f          1 NM8      -0.113667
     48 C27          6.5380     0.6380    -1.5370 c3         1 NM8       0.211100
     49 N3           6.2150     1.9010    -0.8330 n3         1 NM8      -0.716600
     50 C28          6.7730     3.1020    -1.5240 c6         1 NM8       0.163800
     51 C29          6.6350     1.9020     0.6030 c6         1 NM8       0.163800
     52 C30          6.2630     3.2340     1.3290 c6         1 NM8       0.163800
     53 N4           6.8210     4.4400     0.6420 n3         1 NM8      -0.720600
     54 C31          6.4030     4.4360    -0.7980 c6         1 NM8       0.163800
     55 C32          6.4910     5.6940     1.3610 c3         1 NM8       0.169800
     56 C33          7.2050     6.9500     0.8220 c3         1 NM8      -0.091100
     57 H13          4.0540    -3.6850     0.6010 ha         1 NM8       0.127000
     58 H14          7.6870    -1.5350    -0.3320 ha         1 NM8       0.129000
     59 H15          7.6250     0.4760    -1.5370 h1         1 NM8       0.043200
     60 H16          6.2310     0.7130    -2.5900 h1         1 NM8       0.043200
     61 H17          7.8690     3.0290    -1.5820 h1         1 NM8       0.039200
     62 H18          6.4000     3.1530    -2.5580 h1         1 NM8       0.039200
     63 H19          6.1610     1.0710     1.1440 h1         1 NM8       0.039200
     64 H20          7.7230     1.7540     0.6780 h1         1 NM8       0.039200
     65 H21          5.1660     3.3050     1.3830 h1         1 NM8       0.038950
     66 H22          6.6320     3.1810     2.3640 h1         1 NM8       0.038950
     67 H23          6.8810     5.2610    -1.3440 h1         1 NM8       0.038950
     68 H24          5.3160     4.5860    -0.8760 h1         1 NM8       0.038950
     69 H25          5.4060     5.8690     1.3350 h1         1 NM8       0.028700
     70 H26          6.7720     5.5870     2.4170 h1         1 NM8       0.028700
     71 H27          7.0030     7.8060     1.4760 hc         1 NM8       0.037033
     72 H28          8.2890     6.7940     0.7880 hc         1 NM8       0.037033
     73 H29          6.8550     7.2080    -0.1840 hc         1 NM8       0.037033
     74 H12          3.8830     0.1420    -1.4080 ha         1 NM8       0.166000
@<TRIPOS>BOND
     1     1     2 ar  
     2     1     6 ar  
     3     1    27 1   
     4     2     3 ar  
     5     2    20 ar  
     6     3     4 ar  
     7     3    23 ar  
     8     4     5 ar  
     9     4    28 1   
    10     5     6 ar  
    11     5     7 1   
    12     6    29 1   
    13     7     8 2   
    14     7    11 1   
    15     8     9 1   
    16     8    30 1   
    17     9    10 2   
    18     9    31 1   
    19    10    11 1   
    20    10    12 1   
    21    12    13 2   
    22    12    32 1   
    23    13    14 1   
    24    13    17 1   
    25    14    15 1   
    26    14    18 2   
    27    15    16 1   
    28    15    33 1   
    29    16    17 1   
    30    16    19 2   
    31    20    21 ar  
    32    20    24 1   
    33    21    22 ar  
    34    21    34 1   
    35    22    23 ar  
    36    22    35 1   
    37    23    36 1   
    38    24    25 2   
    39    24    26 1   
    40    26    37 1   
    41    26    39 1   
    42    38    39 ar  
    43    38    43 ar  
    44    38    74 1   
    45    39    40 ar  
    46    40    41 ar  
    47    40    57 1   
    48    41    42 ar  
    49    41    44 1   
    50    42    43 ar  
    51    42    58 1   
    52    43    48 1   
    53    44    45 1   
    54    44    46 1   
    55    44    47 1   
    56    48    49 1   
    57    48    59 1   
    58    48    60 1   
    59    49    50 1   
    60    49    51 1   
    61    50    54 1   
    62    50    61 1   
    63    50    62 1   
    64    51    52 1   
    65    51    63 1   
    66    51    64 1   
    67    52    53 1   
    68    52    65 1   
    69    52    66 1   
    70    53    54 1   
    71    53    55 1   
    72    54    67 1   
    73    54    68 1   
    74    55    56 1   
    75    55    69 1   
    76    55    70 1   
    77    56    71 1   
    78    56    72 1   
    79    56    73 1   
@<TRIPOS>SUBSTRUCTURE
     1 NM8         1 TEMP              0 ****  ****    0 ROOT
