@<TRIPOS>MOLECULE
NMC
   19    19     1     0     0
SMALL
bcc


@<TRIPOS>ATOM
      1 N           17.2730    24.3960    45.7590 n7         1 NMC      -0.804200
      2 CA          18.2590    23.4060    45.3700 c3         1 NMC       0.007800
      3 C           18.7260    22.4150    46.4590 c          1 NMC       0.905600
      4 O           17.9710    22.2530    47.4390 o          1 NMC      -0.847300
      5 CN          17.8280    25.6000    46.3480 c3         1 NMC       0.200800
      6 CX1         18.6970    25.4430    47.5770 cx         1 NMC      -0.129700
      7 CX2         19.6380    26.5510    47.9430 cx         1 NMC      -0.138900
      8 CX3         20.1730    25.2420    47.4440 cx         1 NMC      -0.138900
      9 OXT         19.7950    21.8130    46.2280 o          1 NMC      -0.847300
     10 H           16.6560    23.9560    46.4330 hn         1 NMC       0.362800
     11 HA1         17.8430    22.7960    44.5550 h1         1 NMC       0.026700
     12 HA2         19.1240    23.9150    44.9370 h1         1 NMC       0.026700
     13 HCN1        18.4100    26.1210    45.5780 h1         1 NMC       0.019700
     14 HCN2        16.9910    26.2620    46.5920 h1         1 NMC       0.019700
     15 HCX1        18.2210    24.9310    48.4060 hc         1 NMC       0.092700
     16 HC21        19.6950    27.4070    47.2790 hc         1 NMC       0.060700
     17 HC22        19.7670    26.7960    48.9890 hc         1 NMC       0.060700
     18 HC31        20.6710    24.5880    48.1490 hc         1 NMC       0.060700
     19 HC32        20.5920    25.2150    46.4460 hc         1 NMC       0.060700
@<TRIPOS>BOND
     1     1     2 1   
     2     1     5 1   
     3     1    10 1   
     4     2     3 1   
     5     2    11 1   
     6     2    12 1   
     7     3     4 1   
     8     3     9 1   
     9     5     6 1   
    10     5    13 1   
    11     5    14 1   
    12     6     7 1   
    13     6     8 1   
    14     6    15 1   
    15     7     8 1   
    16     7    16 1   
    17     7    17 1   
    18     8    18 1   
    19     8    19 1   
@<TRIPOS>SUBSTRUCTURE
     1 NMC         1 TEMP              0 ****  ****    0 ROOT
