@<TRIPOS>MOLECULE
NMC
   19    19     1     0     0
SMALL
No Charge or Current Charge


@<TRIPOS>ATOM
      1 N           17.2400    24.4150    45.8110 n7         1 NMC      -0.859400
      2 CA          18.1330    23.3120    45.3090 c3         1 NMC       0.007800
      3 C           18.8010    22.3920    46.4020 c          1 NMC       0.695000
      4 O           18.1170    22.0180    47.3470 o          1 NMC      -0.742000
      5 CN          17.8880    25.6630    46.2650 c3         1 NMC       0.200800
      6 CX1         18.6980    25.4760    47.5440 cx         1 NMC      -0.129700
      7 CX2         19.6210    26.5720    48.0280 cx         1 NMC      -0.138900
      8 CX3         20.1970    25.2760    47.5100 cx         1 NMC      -0.138900
      9 OXT         19.9670    22.0530    46.2440 o          1 NMC      -0.742000
     10 H           16.6800    24.0390    46.5890 hn         1 NMC       0.418000
     11 HA1         17.5410    22.6370    44.6760 h1         1 NMC       0.026700
     12 HA2         18.9260    23.7260    44.6720 h1         1 NMC       0.026700
     13 HCN1        18.5360    26.0660    45.4740 h1         1 NMC       0.019700
     14 HCN2        17.1150    26.4180    46.4630 h1         1 NMC       0.019700
     15 HCX1        18.1430    24.9470    48.3160 hc         1 NMC       0.092700
     16 HC21        19.7320    27.4580    47.4080 hc         1 NMC       0.060700
     17 HC22        19.6700    26.7560    49.0990 hc         1 NMC       0.060700
     18 HC31        20.6320    24.5890    48.2320 hc         1 NMC       0.060700
     19 HC32        20.6920    25.2930    46.5420 hc         1 NMC       0.060700
@<TRIPOS>BOND
     1     1     2 1   
     2     1     5 1   
     3     1    10 1   
     4     2     3 1   
     5     2    11 1   
     6     2    12 1   
     7     3     4 1   
     8     3     9 1   
     9     5     6 1   
    10     5    13 1   
    11     5    14 1   
    12     6     7 1   
    13     6     8 1   
    14     6    15 1   
    15     7     8 1   
    16     7    16 1   
    17     7    17 1   
    18     8    18 1   
    19     8    19 1   
@<TRIPOS>SUBSTRUCTURE
     1 NMC         1 TEMP              0 ****  ****    0 ROOT
