@<TRIPOS>MOLECULE
NMD
   72    77     1     0     0
SMALL
No Charge or Current Charge


@<TRIPOS>ATOM
      1 C5          -5.1720     0.0290     1.4200 c3         1 NMD       0.141600
      2 C4          -4.4070    -1.0920     2.1920 c5         1 NMD       0.128300
      3 O4          -3.4130    -1.7050     1.3260 os         1 NMD      -0.424000
      4 C3          -3.5800    -0.5740     3.4160 c5         1 NMD       0.127300
      5 O3          -3.2120    -1.6280     4.3350 oh         1 NMD      -0.709000
      6 C2          -2.3630     0.0220     2.6400 c5         1 NMD       0.068700
      7 N2          -1.2150    -0.0180     3.5680 ns         1 NMD      -0.480900
      8 C1          -2.1200    -1.0950     1.5660 c5         1 NMD       0.296300
      9 N9A         -1.5180    -0.7170     0.2870 na         1 NMD      -0.293300
     10 C8A         -1.5910     0.5390    -0.3280 cc         1 NMD       0.417700
     11 N7A         -0.9130     0.5570    -1.4920 nd         1 NMD      -0.558100
     12 C5A         -0.3950    -0.7390    -1.5820 ca         1 NMD      -0.089600
     13 C6A          0.4110    -1.3130    -2.5880 ca         1 NMD       0.454900
     14 N6A          0.8050    -0.5770    -3.6970 nu         1 NMD      -0.911100
     15 N1A          0.8190    -2.5940    -2.4960 nb         1 NMD      -0.311000
     16 C2A          0.4120    -3.2740    -1.3970 ca         1 NMD       0.184900
     17 N3A         -0.3590    -2.8000    -0.3900 nb         1 NMD      -0.231000
     18 C4A         -0.7530    -1.5180    -0.5120 ca         1 NMD       0.129500
     19 C11          1.6700    -1.0070    -4.8040 c3         1 NMD       0.270100
     20 C16          1.8280     0.1220    -5.8210 ca         1 NMD      -0.098300
     21 C9           0.8170     0.4460    -6.7680 ca         1 NMD      -0.015000
     22 C8          -0.4130    -0.2540    -6.8160 ca         1 NMD      -0.097000
     23 C7          -1.3920     0.0870    -7.7650 ca         1 NMD      -0.108000
     24 C6          -1.1610     1.1270    -8.6770 ca         1 NMD      -0.106000
     25 C15          3.0280     0.8630    -5.8120 ca         1 NMD      -0.098000
     26 C10          1.0380     1.4990    -7.6910 ca         1 NMD      -0.041000
     27 C12          0.0520     1.8330    -8.6390 ca         1 NMD      -0.103000
     28 C14          3.2360     1.9050    -6.7290 ca         1 NMD      -0.114000
     29 C13          2.2440     2.2220    -7.6670 ca         1 NMD      -0.089000
     30 C7B         -0.1000     0.7490     3.2930 c          1 NMD       0.624700
     31 O7B         -0.0590     1.4950     2.3230 o          1 NMD      -0.593100
     32 C6B          1.0680     0.6180     4.2570 ca         1 NMD      -0.078600
     33 C5B          1.0330    -0.2460     5.3800 ca         1 NMD      -0.148500
     34 C4B          2.1290    -0.3450     6.2510 ca         1 NMD       0.169100
     35 O2M          2.0160    -1.2090     7.3210 os         1 NMD      -0.339600
     36 C2M          3.0740    -1.3940     8.2790 c3         1 NMD       0.149900
     37 C3B          3.2890     0.4190     6.0160 ca         1 NMD      -0.271000
     38 C1B          2.2400     1.3750     4.0390 ca         1 NMD      -0.148500
     39 C2B          3.3410     1.2820     4.9030 ca         1 NMD       0.169100
     40 O1M          4.4460     2.0570     4.6170 os         1 NMD      -0.339600
     41 C1M          5.6310     2.0430     5.4340 c3         1 NMD       0.149900
     42 O5          -6.0820    -0.5310     0.4580 oh         1 NMD      -0.702000
     43 H5'1        -5.7300     0.6330     2.1490 h1         1 NMD       0.026700
     44 H5'2        -4.4550     0.6940     0.9220 h1         1 NMD       0.026700
     45 H4          -5.1380    -1.8520     2.5010 h1         1 NMD       0.088700
     46 H3          -4.1190     0.2180     3.9560 h1         1 NMD       0.064700
     47 HO3         -4.0360    -1.9290     4.7870 ho         1 NMD       0.514000
     48 H2          -2.5790     1.0130     2.2210 h1         1 NMD       0.104700
     49 HN2         -1.2040    -0.6100     4.3900 hn         1 NMD       0.338500
     50 H1          -1.4580    -1.8610     1.9910 h2         1 NMD       0.106700
     51 H8A         -2.1400     1.3700     0.0970 h5         1 NMD       0.078800
     52 H6A          0.4720     0.3860    -3.7000 hn         1 NMD       0.513000
     53 H2A          0.7390    -4.3090    -1.3150 h5         1 NMD       0.044100
     54 H111         2.6580    -1.2920    -4.4160 h1         1 NMD       0.067700
     55 H112         1.2570    -1.8980    -5.2980 h1         1 NMD       0.067700
     56 H8          -0.6300    -1.0600    -6.1220 ha         1 NMD       0.134000
     57 H7          -2.3340    -0.4580    -7.7920 ha         1 NMD       0.114000
     58 H6          -1.9210     1.3890    -9.4100 ha         1 NMD       0.112000
     59 H12          3.8080     0.6300    -5.0900 ha         1 NMD       0.110000
     60 H5           0.2230     2.6400    -9.3470 ha         1 NMD       0.111000
     61 H10          4.1670     2.4670    -6.7110 ha         1 NMD       0.114000
     62 H9           2.4140     3.0300    -8.3750 ha         1 NMD       0.113000
     63 H5B          0.1600    -0.8530     5.5980 ha         1 NMD       0.146500
     64 H2M1         2.7730    -2.1210     9.0420 h1         1 NMD       0.041200
     65 H2M2         3.9810    -1.7710     7.7890 h1         1 NMD       0.041200
     66 H2M3         3.3120    -0.4490     8.7850 h1         1 NMD       0.041200
     67 H3B          4.1360     0.3440     6.6870 ha         1 NMD       0.121000
     68 H1B          2.3040     2.0480     3.1870 ha         1 NMD       0.146500
     69 H1M1         6.3820     2.7300     5.0260 h1         1 NMD       0.041200
     70 H1M2         5.4020     2.3590     6.4590 h1         1 NMD       0.041200
     71 H1M3         6.0710     1.0380     5.4650 h1         1 NMD       0.041200
     72 HO5         -6.5190     0.2220    -0.0060 ho         1 NMD       0.508000
@<TRIPOS>BOND
     1     1     2 1   
     2     1    42 1   
     3     1    43 1   
     4     1    44 1   
     5     2     3 1   
     6     2     4 1   
     7     2    45 1   
     8     3     8 1   
     9     4     5 1   
    10     4     6 1   
    11     4    46 1   
    12     5    47 1   
    13     6     7 1   
    14     6     8 1   
    15     6    48 1   
    16     7    30 1   
    17     7    49 1   
    18     8     9 1   
    19     8    50 1   
    20     9    10 1   
    21     9    18 1   
    22    10    11 2   
    23    10    51 1   
    24    11    12 1   
    25    12    13 ar  
    26    12    18 ar  
    27    13    14 1   
    28    13    15 ar  
    29    14    19 1   
    30    14    52 1   
    31    15    16 ar  
    32    16    17 ar  
    33    16    53 1   
    34    17    18 ar  
    35    19    20 1   
    36    19    54 1   
    37    19    55 1   
    38    20    21 ar  
    39    20    25 ar  
    40    21    22 ar  
    41    21    26 ar  
    42    22    23 ar  
    43    22    56 1   
    44    23    24 ar  
    45    23    57 1   
    46    24    27 ar  
    47    24    58 1   
    48    25    28 ar  
    49    25    59 1   
    50    26    27 ar  
    51    26    29 ar  
    52    27    60 1   
    53    28    29 ar  
    54    28    61 1   
    55    29    62 1   
    56    30    31 2   
    57    30    32 1   
    58    32    33 ar  
    59    32    38 ar  
    60    33    34 ar  
    61    33    63 1   
    62    34    35 1   
    63    34    37 ar  
    64    35    36 1   
    65    36    64 1   
    66    36    65 1   
    67    36    66 1   
    68    37    39 ar  
    69    37    67 1   
    70    38    39 ar  
    71    38    68 1   
    72    39    40 1   
    73    40    41 1   
    74    41    69 1   
    75    41    70 1   
    76    41    71 1   
    77    42    72 1   
@<TRIPOS>SUBSTRUCTURE
     1 NMD         1 TEMP              0 ****  ****    0 ROOT
