@<TRIPOS>MOLECULE
NMD
   72    77     1     0     0
SMALL
bcc


@<TRIPOS>ATOM
      1 C5          -5.4290     1.5260     2.1690 c3         1 NMD       0.118400
      2 C4          -4.9170     0.1330     2.4870 c5         1 NMD       0.105100
      3 O4          -4.3190    -0.4760     1.3380 os         1 NMD      -0.377600
      4 C3          -3.8200     0.1480     3.5510 c5         1 NMD       0.104100
      5 O3          -3.6600    -1.0970     4.1780 oh         1 NMD      -0.586800
      6 C2          -2.5910     0.3780     2.6770 c5         1 NMD       0.068700
      7 N2          -1.3360     0.0350     3.2670 ns         1 NMD      -0.547900
      8 C1          -2.9320    -0.4650     1.4360 c5         1 NMD       0.243800
      9 N9A         -2.3670     0.0900     0.2230 na         1 NMD      -0.264000
     10 C8A         -2.9270     1.0110    -0.6200 cc         1 NMD       0.417700
     11 N7A         -2.1180     1.3950    -1.5660 nd         1 NMD      -0.558100
     12 C5A         -0.9610     0.7010    -1.3310 ca         1 NMD      -0.220200
     13 C6A          0.2940     0.6820    -1.9710 ca         1 NMD       0.783200
     14 N6A          0.5420     1.4330    -3.0500 nu         1 NMD      -0.855900
     15 N1A          1.2390    -0.1160    -1.4650 nb         1 NMD      -0.837000
     16 C2A          0.9630    -0.8590    -0.3940 ca         1 NMD       0.710900
     17 N3A         -0.1640    -0.9240     0.2880 nb         1 NMD      -0.757000
     18 C4A         -1.0950    -0.1180    -0.2220 ca         1 NMD       0.457800
     19 C11          1.8160     1.5440    -3.7290 c3         1 NMD       0.270100
     20 C16          1.6830     1.2730    -5.2050 ca         1 NMD      -0.098300
     21 C9           1.4680    -0.0470    -5.7010 ca         1 NMD      -0.015000
     22 C8           1.4220    -1.1850    -4.8590 ca         1 NMD      -0.115000
     23 C7           1.2170    -2.4370    -5.3760 ca         1 NMD      -0.126000
     24 C6           1.0440    -2.6210    -6.7620 ca         1 NMD      -0.124000
     25 C15          1.7380     2.3220    -6.0860 ca         1 NMD      -0.116000
     26 C10          1.3050    -0.2390    -7.0990 ca         1 NMD      -0.041000
     27 C12          1.0920    -1.5430    -7.6030 ca         1 NMD      -0.121000
     28 C14          1.5810     2.1300    -7.4740 ca         1 NMD      -0.132000
     29 C13          1.3650     0.8760    -7.9700 ca         1 NMD      -0.107000
     30 C7B         -0.2500     0.8330     3.2080 c          1 NMD       0.691700
     31 O7B         -0.2790     1.9790     2.7870 o          1 NMD      -0.593100
     32 C6B          1.0150     0.2220     3.7180 ca         1 NMD      -0.078600
     33 C5B          1.3190    -1.1060     3.4500 ca         1 NMD      -0.166500
     34 C4B          2.5270    -1.6310     3.9030 ca         1 NMD       0.169100
     35 O2M          2.7660    -2.9150     3.5880 os         1 NMD      -0.316400
     36 C2M          3.9880    -3.5040     3.9880 c3         1 NMD       0.126700
     37 C3B          3.4140    -0.8390     4.6310 ca         1 NMD      -0.289000
     38 C1B          1.8960     1.0330     4.4190 ca         1 NMD      -0.166500
     39 C2B          3.0900     0.4930     4.8880 ca         1 NMD       0.169100
     40 O1M          3.8830     1.3270     5.5840 os         1 NMD      -0.316400
     41 C1M          5.1240     0.8500     6.0670 c3         1 NMD       0.126700
     42 O5          -6.2820     1.4440     1.0550 oh         1 NMD      -0.579800
     43 H5'1        -5.9490     1.8980     3.0610 h1         1 NMD       0.026700
     44 H5'2        -4.5930     2.2150     1.9850 h1         1 NMD       0.026700
     45 H4          -5.7600    -0.4960     2.7900 h1         1 NMD       0.088700
     46 H3          -3.9610     0.9580     4.2750 h1         1 NMD       0.064700
     47 HO3         -4.4110    -1.2570     4.7590 ho         1 NMD       0.415000
     48 H2          -2.5490     1.4310     2.3960 h1         1 NMD       0.104700
     49 HN2         -1.2430    -0.8830     3.6720 hn         1 NMD       0.338500
     50 H1          -2.5320    -1.4800     1.5320 h2         1 NMD       0.106700
     51 H8A         -3.9460     1.3470    -0.4980 h5         1 NMD       0.078800
     52 H6A         -0.2030     2.0320    -3.3700 hn         1 NMD       0.457800
     53 H2A          1.7740    -1.4860    -0.0400 h5         1 NMD       0.044100
     54 H111         2.2140     2.5510    -3.5860 h1         1 NMD       0.067700
     55 H112         2.5150     0.8600    -3.2520 h1         1 NMD       0.067700
     56 H8           1.5610    -1.0770    -3.7910 ha         1 NMD       0.152000
     57 H7           1.1890    -3.2920    -4.7140 ha         1 NMD       0.132000
     58 H6           0.8800    -3.6150    -7.1570 ha         1 NMD       0.130000
     59 H12          1.9050     3.3240    -5.7100 ha         1 NMD       0.128000
     60 H5           0.9690    -1.6760    -8.6710 ha         1 NMD       0.129000
     61 H10          1.6300     2.9810    -8.1400 ha         1 NMD       0.132000
     62 H9           1.2410     0.7190    -9.0340 ha         1 NMD       0.131000
     63 H5B          0.6610    -1.7220     2.8500 ha         1 NMD       0.164500
     64 H2M1         3.9740    -4.5250     3.6150 h1         1 NMD       0.041200
     65 H2M2         4.8490    -2.9840     3.5620 h1         1 NMD       0.041200
     66 H2M3         4.0930    -3.5300     5.0760 h1         1 NMD       0.041200
     67 H3B          4.3460    -1.2530     4.9890 ha         1 NMD       0.139000
     68 H1B          1.6580     2.0700     4.6170 ha         1 NMD       0.164500
     69 H1M1         5.5910     1.6820     6.5870 h1         1 NMD       0.041200
     70 H1M2         4.9990     0.0220     6.7680 h1         1 NMD       0.041200
     71 H1M3         5.7820     0.5300     5.2550 h1         1 NMD       0.041200
     72 HO5         -6.6240     2.3250     0.8770 ho         1 NMD       0.409000
@<TRIPOS>BOND
     1     1     2 1   
     2     1    42 1   
     3     1    43 1   
     4     1    44 1   
     5     2     3 1   
     6     2     4 1   
     7     2    45 1   
     8     3     8 1   
     9     4     5 1   
    10     4     6 1   
    11     4    46 1   
    12     5    47 1   
    13     6     7 1   
    14     6     8 1   
    15     6    48 1   
    16     7    30 1   
    17     7    49 1   
    18     8     9 1   
    19     8    50 1   
    20     9    10 1   
    21     9    18 1   
    22    10    11 2   
    23    10    51 1   
    24    11    12 1   
    25    12    13 ar  
    26    12    18 ar  
    27    13    14 1   
    28    13    15 ar  
    29    14    19 1   
    30    14    52 1   
    31    15    16 ar  
    32    16    17 ar  
    33    16    53 1   
    34    17    18 ar  
    35    19    20 1   
    36    19    54 1   
    37    19    55 1   
    38    20    21 ar  
    39    20    25 ar  
    40    21    22 ar  
    41    21    26 ar  
    42    22    23 ar  
    43    22    56 1   
    44    23    24 ar  
    45    23    57 1   
    46    24    27 ar  
    47    24    58 1   
    48    25    28 ar  
    49    25    59 1   
    50    26    27 ar  
    51    26    29 ar  
    52    27    60 1   
    53    28    29 ar  
    54    28    61 1   
    55    29    62 1   
    56    30    31 2   
    57    30    32 1   
    58    32    33 ar  
    59    32    38 ar  
    60    33    34 ar  
    61    33    63 1   
    62    34    35 1   
    63    34    37 ar  
    64    35    36 1   
    65    36    64 1   
    66    36    65 1   
    67    36    66 1   
    68    37    39 ar  
    69    37    67 1   
    70    38    39 ar  
    71    38    68 1   
    72    39    40 1   
    73    40    41 1   
    74    41    69 1   
    75    41    70 1   
    76    41    71 1   
    77    42    72 1   
@<TRIPOS>SUBSTRUCTURE
     1 NMD         1 TEMP              0 ****  ****    0 ROOT
