@<TRIPOS>MOLECULE
NME
    7     6     1     0     0
SMALL
No Charge or Current Charge


@<TRIPOS>ATOM
      1 N           25.5510    12.8140    23.8710 n8         1 NME      -0.992200
      2 C           26.6900    12.6630    24.7990 c3         1 NME       0.132100
      3 HN1         24.6910    12.9580    24.4170 hn         1 NME       0.389000
      4 HN2         25.6560    13.6950    23.3510 hn         1 NME       0.389000
      5 H1          27.6230    12.5770    24.2240 h1         1 NME       0.027367
      6 H2          26.7480    13.5400    25.4580 h1         1 NME       0.027367
      7 H3          26.5520    11.7580    25.4070 h1         1 NME       0.027367
@<TRIPOS>BOND
     1     1     2 1   
     2     1     3 1   
     3     1     4 1   
     4     2     5 1   
     5     2     6 1   
     6     2     7 1   
@<TRIPOS>SUBSTRUCTURE
     1 NME         1 TEMP              0 ****  ****    0 ROOT
