@<TRIPOS>MOLECULE
NME
    7     6     1     0     0
SMALL
bcc


@<TRIPOS>ATOM
      1 N           25.5510    12.8230    23.8720 n8         1 NME      -0.881800
      2 C           26.6680    12.6880    24.7940 c3         1 NME       0.132100
      3 HN1         24.6930    12.9270    24.3980 hn         1 NME       0.333800
      4 HN2         25.6520    13.6820    23.3480 hn         1 NME       0.333800
      5 H1          27.5970    12.5740    24.2340 h1         1 NME       0.027367
      6 H2          26.8050    13.5260    25.4880 h1         1 NME       0.027367
      7 H3          26.5440    11.7850    25.3920 h1         1 NME       0.027367
@<TRIPOS>BOND
     1     1     2 1   
     2     1     3 1   
     3     1     4 1   
     4     2     5 1   
     5     2     6 1   
     6     2     7 1   
@<TRIPOS>SUBSTRUCTURE
     1 NME         1 TEMP              0 ****  ****    0 ROOT
