@<TRIPOS>MOLECULE
NMF
   31    31     1     0     0
SMALL
bcc


@<TRIPOS>ATOM
      1 F           -0.9160    -0.4810    -1.8540 f          1 NMF      -0.247300
      2 C1           2.0800     1.2780    -0.3370 c          1 NMF       0.824500
      3 N1           0.8140     1.2130     0.1930 n          1 NMF      -0.371000
      4 O1           2.5520     2.3010    -0.7940 o          1 NMF      -0.636500
      5 C2           2.3570    -1.1130     0.1680 c          1 NMF       0.734700
      6 N2           2.7830     0.1090    -0.3090 ns         1 NMF      -0.593500
      7 O2           3.1130    -2.0710     0.1340 o          1 NMF      -0.612500
      8 C3           0.9980    -1.1270     0.6630 cc         1 NMF      -0.265400
      9 O3          -4.5920     0.4080    -0.2420 oh         1 NMF      -0.597800
     10 C4           0.4540    -2.4410     1.1470 c3         1 NMF      -0.026900
     11 C5           0.2720     0.0230     0.6390 cd         1 NMF       0.119400
     12 C11         -1.1510     0.0400     1.1120 c3         1 NMF      -0.054200
     13 C12         -2.2220     0.2210     0.0220 c3         1 NMF      -0.097700
     14 C13         -3.5880     0.0530     0.6790 c3         1 NMF       0.139400
     15 C14         -2.0700    -0.7600    -1.1220 c3         1 NMF       0.168900
     16 HN2          3.7200     0.1520    -0.6890 hn         1 NMF       0.345500
     17 HO3         -5.4460     0.2030     0.1490 ho         1 NMF       0.412000
     18 H4           1.2310    -3.2000     1.1170 hc         1 NMF       0.046033
     19 H4A          0.0940    -2.3890     2.1750 hc         1 NMF       0.046033
     20 H4B         -0.3680    -2.8040     0.5290 hc         1 NMF       0.046033
     21 H6           0.7400     3.2720     0.5620 h1         1 NMF       0.056033
     22 H6A         -0.2620     2.7390    -0.7950 h1         1 NMF       0.056033
     23 H6B         -0.7610     2.4290     0.8690 h1         1 NMF       0.056033
     24 H11         -1.3510    -0.8970     1.6280 hc         1 NMF       0.064200
     25 H11A        -1.2790     0.8160     1.8710 hc         1 NMF       0.064200
     26 H12         -2.1760     1.2340    -0.3880 hc         1 NMF       0.080700
     27 H13         -3.6240     0.6870     1.5750 h1         1 NMF       0.022700
     28 H13A        -3.7000    -0.9860     1.0210 h1         1 NMF       0.022700
     29 H14         -2.9170    -0.6920    -1.8040 h1         1 NMF       0.054200
     30 H14A        -2.0000    -1.7850    -0.7510 h1         1 NMF       0.054200
     31 C6           0.0900     2.4800     0.2030 c3         1 NMF       0.090300
@<TRIPOS>BOND
     1     1    15 1   
     2     2     3 1   
     3     2     4 2   
     4     2     6 1   
     5     3    11 1   
     6     3    31 1   
     7     5     6 1   
     8     5     7 2   
     9     5     8 1   
    10     6    16 1   
    11     8    10 1   
    12     8    11 2   
    13     9    14 1   
    14     9    17 1   
    15    10    18 1   
    16    10    19 1   
    17    10    20 1   
    18    11    12 1   
    19    12    13 1   
    20    12    24 1   
    21    12    25 1   
    22    13    14 1   
    23    13    15 1   
    24    13    26 1   
    25    14    27 1   
    26    14    28 1   
    27    15    29 1   
    28    15    30 1   
    29    21    31 1   
    30    22    31 1   
    31    23    31 1   
@<TRIPOS>SUBSTRUCTURE
     1 NMF         1 TEMP              0 ****  ****    0 ROOT
