@<TRIPOS>MOLECULE
NMF
   31    31     1     0     0
SMALL
No Charge or Current Charge


@<TRIPOS>ATOM
      1 F           -1.0460    -0.9420    -1.7870 f          1 NMF      -0.266000
      2 C1           2.1490     1.3340    -0.2600 c          1 NMF       0.615000
      3 N1           0.8330     1.2580     0.2400 n          1 NMF      -0.304000
      4 O1           2.6560     2.3650    -0.6710 o          1 NMF      -0.561000
      5 C2           2.4700    -1.0400     0.1390 c          1 NMF       0.592200
      6 N2           2.8590     0.1880    -0.2610 ns         1 NMF      -0.459500
      7 O2           3.2530    -1.9750     0.0840 o          1 NMF      -0.537000
      8 C3           1.0670    -1.1150     0.6180 cc         1 NMF      -0.265400
      9 O3          -4.6430     0.5440    -0.3700 oh         1 NMF      -0.660000
     10 C4           0.6080    -2.5030     1.0500 c3         1 NMF      -0.026900
     11 C5           0.2720     0.0290     0.6460 cd         1 NMF       0.119400
     12 C11         -1.1830    -0.0400     1.1170 c3         1 NMF      -0.054200
     13 C12         -2.2600     0.1110    -0.0040 c3         1 NMF      -0.097700
     14 C13         -3.6720     0.2020     0.6250 c3         1 NMF       0.162600
     15 C14         -2.1960    -1.0150    -1.0720 c3         1 NMF       0.187600
     16 HN2          3.8020     0.2590    -0.6050 hn         1 NMF       0.345500
     17 HO3         -5.5100     0.6190     0.0890 ho         1 NMF       0.451000
     18 H4           1.3310    -3.2960     0.8320 hc         1 NMF       0.046033
     19 H4A          0.4190    -2.5290     2.1300 hc         1 NMF       0.046033
     20 H4B         -0.3200    -2.7870     0.5400 hc         1 NMF       0.046033
     21 H6           0.7370     3.3820     0.4800 h1         1 NMF       0.056033
     22 H6A         -0.4240     2.7000    -0.6870 h1         1 NMF       0.056033
     23 H6B         -0.6880     2.5380     1.0730 h1         1 NMF       0.056033
     24 H11         -1.3830    -0.9760     1.6480 hc         1 NMF       0.064200
     25 H11A        -1.3510     0.7190     1.8880 hc         1 NMF       0.064200
     26 H12         -2.0880     1.0580    -0.5260 hc         1 NMF       0.080700
     27 H13         -3.6670     0.9660     1.4130 h1         1 NMF       0.022700
     28 H13A        -3.9260    -0.7590     1.0940 h1         1 NMF       0.022700
     29 H14         -3.0320    -0.9210    -1.7770 h1         1 NMF       0.054200
     30 H14A        -2.2570    -2.0010    -0.5950 h1         1 NMF       0.054200
     31 C6           0.0660     2.5360     0.2800 c3         1 NMF       0.090300
@<TRIPOS>BOND
     1     1    15 1   
     2     2     3 1   
     3     2     4 2   
     4     2     6 1   
     5     3    11 1   
     6     3    31 1   
     7     5     6 1   
     8     5     7 2   
     9     5     8 1   
    10     6    16 1   
    11     8    10 1   
    12     8    11 2   
    13     9    14 1   
    14     9    17 1   
    15    10    18 1   
    16    10    19 1   
    17    10    20 1   
    18    11    12 1   
    19    12    13 1   
    20    12    24 1   
    21    12    25 1   
    22    13    14 1   
    23    13    15 1   
    24    13    26 1   
    25    14    27 1   
    26    14    28 1   
    27    15    29 1   
    28    15    30 1   
    29    21    31 1   
    30    22    31 1   
    31    23    31 1   
@<TRIPOS>SUBSTRUCTURE
     1 NMF         1 TEMP              0 ****  ****    0 ROOT
