@<TRIPOS>MOLECULE
NMH
   27    26     1     0     0
SMALL
No Charge or Current Charge


@<TRIPOS>ATOM
      1 C7           0.3020     0.0510     4.9370 c3         1 NMH      -0.089100
      2 C6           0.7460    -0.1650     3.4780 c3         1 NMH      -0.075400
      3 C5          -0.3950     0.0500     2.4600 c3         1 NMH      -0.076400
      4 C4           0.0500    -0.1670     0.9970 c3         1 NMH      -0.074400
      5 C3          -1.0960     0.0490    -0.0210 c3         1 NMH      -0.089400
      6 C2          -0.6910    -0.2130    -1.4920 c3         1 NMH       0.106700
      7 C1          -1.8910    -0.0930    -2.4520 c3         1 NMH      -0.108100
      8 N            0.3860     0.6880    -1.9100 ns         1 NMH      -0.514900
      9 C            1.3580     0.3810    -2.8380 c          1 NMH       0.597900
     10 O            1.4180    -0.7020    -3.4090 o          1 NMH      -0.608100
     11 HC71         1.1430    -0.1130     5.6210 hc         1 NMH       0.031700
     12 HC72        -0.0660     1.0740     5.0840 hc         1 NMH       0.031700
     13 HC73        -0.5000    -0.6480     5.2060 hc         1 NMH       0.031700
     14 HC61         1.5700     0.5220     3.2510 hc         1 NMH       0.037700
     15 HC62         1.1400    -1.1840     3.3720 hc         1 NMH       0.037700
     16 HC51        -1.2190    -0.6370     2.6920 hc         1 NMH       0.037200
     17 HC52        -0.7880     1.0690     2.5690 hc         1 NMH       0.037200
     18 HC41         0.8770     0.5190     0.7720 hc         1 NMH       0.042200
     19 HC42         0.4410    -1.1860     0.8870 hc         1 NMH       0.042200
     20 HC31        -1.9260    -0.6190     0.2390 hc         1 NMH       0.043700
     21 HC32        -1.4750     1.0740     0.0730 hc         1 NMH       0.043700
     22 HC2         -0.3190    -1.2450    -1.5520 h1         1 NMH       0.076700
     23 HC11        -2.3040     0.9230    -2.4360 hc         1 NMH       0.041700
     24 HC12        -1.5890    -0.3250    -3.4800 hc         1 NMH       0.041700
     25 HC13        -2.6860    -0.7920    -2.1670 hc         1 NMH       0.041700
     26 HN           0.4300     1.6130    -1.5000 hn         1 NMH       0.308500
     27 HC           2.0670     1.2130    -3.0050 h5         1 NMH       0.003200
@<TRIPOS>BOND
     1     1     2 1   
     2     1    11 1   
     3     1    12 1   
     4     1    13 1   
     5     2     3 1   
     6     2    14 1   
     7     2    15 1   
     8     3     4 1   
     9     3    16 1   
    10     3    17 1   
    11     4     5 1   
    12     4    18 1   
    13     4    19 1   
    14     5     6 1   
    15     5    20 1   
    16     5    21 1   
    17     6     7 1   
    18     6     8 1   
    19     6    22 1   
    20     7    23 1   
    21     7    24 1   
    22     7    25 1   
    23     8     9 1   
    24     8    26 1   
    25     9    10 2   
    26     9    27 1   
@<TRIPOS>SUBSTRUCTURE
     1 NMH         1 TEMP              0 ****  ****    0 ROOT
