@<TRIPOS>MOLECULE
NMH
   27    26     1     0     0
SMALL
abcg2


@<TRIPOS>ATOM
      1 C7           0.3170     0.0820     4.8640 c3         1 NMH      -0.089100
      2 C6           0.7340    -0.2020     3.4270 c3         1 NMH      -0.075400
      3 C5          -0.3830     0.0580     2.4230 c3         1 NMH      -0.076400
      4 C4           0.0360    -0.2120     0.9830 c3         1 NMH      -0.074400
      5 C3          -1.0850     0.0370    -0.0180 c3         1 NMH      -0.089400
      6 C2          -0.6880    -0.2200    -1.4680 c3         1 NMH       0.106700
      7 C1          -1.8790    -0.1150    -2.4150 c3         1 NMH      -0.108100
      8 N            0.3670     0.7030    -1.8570 ns         1 NMH      -0.514900
      9 C            1.3440     0.4230    -2.7230 c          1 NMH       0.597900
     10 O            1.5160    -0.6480    -3.2830 o          1 NMH      -0.608100
     11 HC71         1.1290    -0.1180     5.5640 hc         1 NMH       0.031700
     12 HC72         0.0200     1.1250     4.9900 hc         1 NMH       0.031700
     13 HC73        -0.5320    -0.5380     5.1580 hc         1 NMH       0.031700
     14 HC61         1.6010     0.4140     3.1680 hc         1 NMH       0.037700
     15 HC62         1.0640    -1.2410     3.3400 hc         1 NMH       0.037700
     16 HC51        -1.2490    -0.5630     2.6770 hc         1 NMH       0.037200
     17 HC52        -0.7170     1.0970     2.5160 hc         1 NMH       0.037200
     18 HC41         0.8990     0.4140     0.7360 hc         1 NMH       0.042200
     19 HC42         0.3760    -1.2490     0.8910 hc         1 NMH       0.042200
     20 HC31        -1.9340    -0.6110     0.2210 hc         1 NMH       0.043700
     21 HC32        -1.4530     1.0650     0.0800 hc         1 NMH       0.043700
     22 HC2         -0.2730    -1.2280    -1.5390 h1         1 NMH       0.076700
     23 HC11        -2.3200     0.8830    -2.3790 hc         1 NMH       0.041700
     24 HC12        -1.5790    -0.3180    -3.4430 hc         1 NMH       0.041700
     25 HC13        -2.6510    -0.8340    -2.1410 hc         1 NMH       0.041700
     26 HN           0.3160     1.6490    -1.5100 hn         1 NMH       0.308500
     27 HC           2.0090     1.2860    -2.8850 h5         1 NMH       0.003200
@<TRIPOS>BOND
     1     1     2 1   
     2     1    11 1   
     3     1    12 1   
     4     1    13 1   
     5     2     3 1   
     6     2    14 1   
     7     2    15 1   
     8     3     4 1   
     9     3    16 1   
    10     3    17 1   
    11     4     5 1   
    12     4    18 1   
    13     4    19 1   
    14     5     6 1   
    15     5    20 1   
    16     5    21 1   
    17     6     7 1   
    18     6     8 1   
    19     6    22 1   
    20     7    23 1   
    21     7    24 1   
    22     7    25 1   
    23     8     9 1   
    24     8    26 1   
    25     9    10 2   
    26     9    27 1   
@<TRIPOS>SUBSTRUCTURE
     1 NMH         1 TEMP              0 ****  ****    0 ROOT
