@<TRIPOS>MOLECULE
NMI
   27    28     1     0     0
SMALL
No Charge or Current Charge


@<TRIPOS>ATOM
      1 CAA          2.9460     2.6370     0.3630 c3         1 NMI       0.075900
      2 NAN          1.8890     1.6530     0.0820 na         1 NMI      -0.103700
      3 CAH          0.5330     1.9110    -0.1940 cc         1 NMI      -0.191100
      4 CAM          2.1380     0.2890     0.0600 ca         1 NMI      -0.048200
      5 CAG          3.3340    -0.4130     0.2760 ca         1 NMI      -0.146000
      6 CAE          3.3000    -1.8210     0.1900 ca         1 NMI      -0.103000
      7 CAD          2.0880    -2.4920    -0.1060 ca         1 NMI      -0.166000
      8 CAF          0.8990    -1.7610    -0.3190 ca         1 NMI      -0.037000
      9 CAL          0.9700    -0.3640    -0.2260 ca         1 NMI      -0.093800
     10 CAK         -0.0420     0.6590    -0.3850 cd         1 NMI      -0.086400
     11 CAJ         -1.4920     0.4090    -0.7140 c3         1 NMI       0.001800
     12 CAI         -2.3130    -0.0340     0.5190 c3         1 NMI      -0.202400
     13 CAC         -3.7760    -0.2690     0.1130 c          1 NMI       0.716000
     14 OAB         -4.0940    -1.3810    -0.2810 o          1 NMI      -0.742500
     15 O1          -4.5460     0.6780     0.1540 o          1 NMI      -0.742500
     16 H1           3.3660     2.4520     1.3590 h1         1 NMI       0.036367
     17 H2           3.7390     2.5500    -0.3890 h1         1 NMI       0.036367
     18 H3           2.5270     3.6510     0.3310 h1         1 NMI       0.036367
     19 H4           0.1090     2.9090    -0.2310 h4         1 NMI       0.205000
     20 H5           4.2620     0.1070     0.5030 ha         1 NMI       0.097000
     21 H6           4.2100    -2.3950     0.3530 ha         1 NMI       0.092000
     22 H7           2.0720    -3.5770    -0.1700 ha         1 NMI       0.100000
     23 H8          -0.0370    -2.2640    -0.5470 ha         1 NMI       0.129000
     24 H9          -1.9390     1.3170    -1.1370 hc         1 NMI       0.048200
     25 H10         -1.5670    -0.3600    -1.4940 hc         1 NMI       0.048200
     26 H11         -1.8550    -0.9670     0.8680 hc         1 NMI       0.020700
     27 H12         -2.2390     0.7910     1.2380 hc         1 NMI       0.020700
@<TRIPOS>BOND
     1     1     2 1   
     2     1    16 1   
     3     1    17 1   
     4     1    18 1   
     5     2     3 1   
     6     2     4 1   
     7     3    10 2   
     8     3    19 1   
     9     4     5 ar  
    10     4     9 ar  
    11     5     6 ar  
    12     5    20 1   
    13     6     7 ar  
    14     6    21 1   
    15     7     8 ar  
    16     7    22 1   
    17     8     9 ar  
    18     8    23 1   
    19     9    10 1   
    20    10    11 1   
    21    11    12 1   
    22    11    24 1   
    23    11    25 1   
    24    12    13 1   
    25    12    26 1   
    26    12    27 1   
    27    13    14 1   
    28    13    15 1   
@<TRIPOS>SUBSTRUCTURE
     1 NMI         1 TEMP              0 ****  ****    0 ROOT
