@<TRIPOS>MOLECULE
NMI
   27    28     1     0     0
SMALL
abcg2


@<TRIPOS>ATOM
      1 CAA          2.9330     2.6430     0.2290 c3         1 NMI       0.075900
      2 NAN          1.9370     1.6250     0.0120 na         1 NMI      -0.103700
      3 CAH          0.6230     1.8370    -0.3270 cc         1 NMI      -0.191100
      4 CAM          2.1530     0.2800     0.0750 ca         1 NMI      -0.048200
      5 CAG          3.3170    -0.4290     0.3720 ca         1 NMI      -0.146000
      6 CAE          3.2430    -1.8100     0.3610 ca         1 NMI      -0.103000
      7 CAD          2.0440    -2.4750     0.0580 ca         1 NMI      -0.166000
      8 CAF          0.8930    -1.7680    -0.2360 ca         1 NMI      -0.037000
      9 CAL          0.9340    -0.3690    -0.2300 ca         1 NMI      -0.093800
     10 CAK         -0.0380     0.6520    -0.4860 cd         1 NMI      -0.086400
     11 CAJ         -1.4840     0.4510    -0.8020 c3         1 NMI       0.001800
     12 CAI         -2.2890    -0.0090     0.4120 c3         1 NMI      -0.202400
     13 CAC         -3.7820    -0.2820     0.1620 c          1 NMI       0.716000
     14 OAB         -4.1930    -0.2510    -1.0150 o          1 NMI      -0.742500
     15 O1          -4.4680    -0.5260     1.1770 o          1 NMI      -0.742500
     16 H1           3.3870     2.5420     1.2150 h1         1 NMI       0.036367
     17 H2           3.7210     2.5940    -0.5230 h1         1 NMI       0.036367
     18 H3           2.4620     3.6210     0.1700 h1         1 NMI       0.036367
     19 H4           0.2490     2.8440    -0.4320 h4         1 NMI       0.205000
     20 H5           4.2460     0.0740     0.6070 ha         1 NMI       0.097000
     21 H6           4.1280    -2.3900     0.5910 ha         1 NMI       0.092000
     22 H7           2.0240    -3.5570     0.0570 ha         1 NMI       0.100000
     23 H8          -0.0270    -2.2910    -0.4690 ha         1 NMI       0.129000
     24 H9          -1.9050     1.3820    -1.1900 hc         1 NMI       0.048200
     25 H10         -1.5870    -0.2850    -1.6040 hc         1 NMI       0.048200
     26 H11         -1.8430    -0.9230     0.8210 hc         1 NMI       0.020700
     27 H12         -2.1970     0.7330     1.2120 hc         1 NMI       0.020700
@<TRIPOS>BOND
     1     1     2 1   
     2     1    16 1   
     3     1    17 1   
     4     1    18 1   
     5     2     3 1   
     6     2     4 1   
     7     3    10 2   
     8     3    19 1   
     9     4     5 ar  
    10     4     9 ar  
    11     5     6 ar  
    12     5    20 1   
    13     6     7 ar  
    14     6    21 1   
    15     7     8 ar  
    16     7    22 1   
    17     8     9 ar  
    18     8    23 1   
    19     9    10 1   
    20    10    11 1   
    21    11    12 1   
    22    11    24 1   
    23    11    25 1   
    24    12    13 1   
    25    12    26 1   
    26    12    27 1   
    27    13    14 1   
    28    13    15 1   
@<TRIPOS>SUBSTRUCTURE
     1 NMI         1 TEMP              0 ****  ****    0 ROOT
