@<TRIPOS>MOLECULE
NMJ
   12    12     1     0     0
SMALL
abcg2


@<TRIPOS>ATOM
      1 C01          0.8230     1.5490     0.0140 ca         1 NMJ       0.290900
      2 C02          0.9310     0.1620     0.0400 ca         1 NMJ       0.267500
      3 N03         -0.1700    -0.5880     0.0440 nb         1 NMJ      -0.603000
      4 C04         -1.3190     0.0310     0.0250 ca         1 NMJ       0.374000
      5 C05         -1.4390     1.4150     0.0040 ca         1 NMJ       0.259900
      6 N06         -0.3530     2.1660    -0.0030 nb         1 NMJ      -0.668000
      7 CL07        -2.7560    -0.9380     0.0270 cl         1 NMJ      -0.220000
      8 C08          2.2930    -0.5330     0.0640 c          1 NMJ       0.617500
      9 O09          3.2740     0.2320     0.0450 o          1 NMJ      -0.689000
     10 O10          2.2790    -1.7710     0.0980 o          1 NMJ      -0.689000
     11 H1           1.7080     2.1710     0.0080 h4         1 NMJ       0.048100
     12 H2          -2.4070     1.9020    -0.0080 h4         1 NMJ       0.013100
@<TRIPOS>BOND
     1     1     2 ar  
     2     1     6 ar  
     3     1    11 1   
     4     2     3 ar  
     5     2     8 1   
     6     3     4 ar  
     7     4     5 ar  
     8     4     7 1   
     9     5     6 ar  
    10     5    12 1   
    11     8     9 1   
    12     8    10 1   
@<TRIPOS>SUBSTRUCTURE
     1 NMJ         1 TEMP              0 ****  ****    0 ROOT
