@<TRIPOS>MOLECULE
NMJ
   12    12     1     0     0
SMALL
No Charge or Current Charge


@<TRIPOS>ATOM
      1 C01          0.8390     1.5510     0.0150 ca         1 NMJ       0.290900
      2 C02          0.9270     0.1290     0.0410 ca         1 NMJ       0.267500
      3 N03         -0.2110    -0.6510     0.0470 nb         1 NMJ      -0.603000
      4 C04         -1.3900     0.0200     0.0270 ca         1 NMJ       0.374000
      5 C05         -1.4620     1.4390     0.0010 ca         1 NMJ       0.259900
      6 N06         -0.3500     2.2240    -0.0060 nb         1 NMJ      -0.668000
      7 Cl07        -2.8470    -0.9690     0.0340 cl         1 NMJ      -0.220000
      8 C08          2.3220    -0.5230     0.0630 c          1 NMJ       0.617500
      9 O09          3.3120     0.2000     0.0570 o          1 NMJ      -0.689000
     10 O10          2.4140    -1.7470     0.0850 o          1 NMJ      -0.689000
     11 H1           1.7340     2.1710     0.0100 h4         1 NMJ       0.048100
     12 H2          -2.4230     1.9520    -0.0150 h4         1 NMJ       0.013100
@<TRIPOS>BOND
     1     1     2 ar  
     2     1     6 ar  
     3     1    11 1   
     4     2     3 ar  
     5     2     8 1   
     6     3     4 ar  
     7     4     5 ar  
     8     4     7 1   
     9     5     6 ar  
    10     5    12 1   
    11     8     9 1   
    12     8    10 1   
@<TRIPOS>SUBSTRUCTURE
     1 NMJ         1 TEMP              0 ****  ****    0 ROOT
