@<TRIPOS>MOLECULE
NMK
   27    26     1     0     0
SMALL
No Charge or Current Charge


@<TRIPOS>ATOM
      1 N           -1.4020     1.5700     0.2200 n7         1 NMK      -0.878400
      2 CA          -1.2410     0.1860    -0.3520 c3         1 NMK       0.021500
      3 CB           0.0690    -0.4580     0.1790 c3         1 NMK      -0.049400
      4 CG           1.3620     0.2530    -0.2920 c3         1 NMK      -0.073400
      5 CD           2.6480    -0.4410     0.2060 c3         1 NMK      -0.106400
      6 CE           3.9230     0.2740    -0.2650 c3         1 NMK       0.096600
      7 NZ           5.1500    -0.4330     0.2420 nz         1 NMK      -0.974000
      8 C           -2.4680    -0.7810    -0.0990 c          1 NMK       0.694000
      9 O           -2.8300    -0.9770     1.0550 o          1 NMK      -0.716500
     10 CN          -2.4790     2.3810    -0.3800 c3         1 NMK       0.157100
     11 OXT         -3.0480    -1.2480    -1.0700 o          1 NMK      -0.716500
     12 H           -1.6070     1.4680     1.2230 hn         1 NMK       0.415000
     13 HA          -1.1360     0.2620    -1.4440 h1         1 NMK       0.042700
     14 HB2          0.0450    -0.4890     1.2750 hc         1 NMK       0.045200
     15 HB3          0.1040    -1.5000    -0.1620 hc         1 NMK       0.045200
     16 HG2          1.3730     0.2880    -1.3890 hc         1 NMK       0.053700
     17 HG3          1.3570     1.2920     0.0600 hc         1 NMK       0.053700
     18 HD2          2.6380    -0.4760     1.3030 hc         1 NMK       0.058700
     19 HD3          2.6620    -1.4780    -0.1510 hc         1 NMK       0.058700
     20 HE2          3.9450     0.2980    -1.3610 hx         1 NMK       0.100700
     21 HE3          3.9210     1.3060     0.1030 hx         1 NMK       0.100700
     22 HZ1          5.1970    -0.4760     1.2710 hn         1 NMK       0.503333
     23 HZ3          5.2200    -1.4090    -0.0840 hn         1 NMK       0.503333
     24 HM1         -2.3120     2.5160    -1.4570 h1         1 NMK       0.020367
     25 HM2         -3.4570     1.9010    -0.2390 h1         1 NMK       0.020367
     26 HM3         -2.5170     3.3740     0.0870 h1         1 NMK       0.020367
     27 HZ2          6.0290     0.0210    -0.0560 hn         1 NMK       0.503333
@<TRIPOS>BOND
     1     1     2 1   
     2     1    10 1   
     3     1    12 1   
     4     2     3 1   
     5     2     8 1   
     6     2    13 1   
     7     3     4 1   
     8     3    14 1   
     9     3    15 1   
    10     4     5 1   
    11     4    16 1   
    12     4    17 1   
    13     5     6 1   
    14     5    18 1   
    15     5    19 1   
    16     6     7 1   
    17     6    20 1   
    18     6    21 1   
    19     7    22 1   
    20     7    23 1   
    21     7    27 1   
    22     8     9 1   
    23     8    11 1   
    24    10    24 1   
    25    10    25 1   
    26    10    26 1   
@<TRIPOS>SUBSTRUCTURE
     1 NMK         1 TEMP              0 ****  ****    0 ROOT
