@<TRIPOS>MOLECULE
NMK
   27    26     1     0     0
SMALL
bcc


@<TRIPOS>ATOM
      1 N           -1.3080     1.4920     0.2990 n7         1 NMK      -0.823200
      2 CA          -1.2310     0.1970    -0.3520 c3         1 NMK       0.021500
      3 CB           0.0510    -0.5240     0.0770 c3         1 NMK      -0.049400
      4 CG           1.3200     0.1980    -0.3570 c3         1 NMK      -0.073400
      5 CD           2.5820    -0.4440     0.2080 c3         1 NMK      -0.106400
      6 CE           3.8220     0.2560    -0.3070 c3         1 NMK       0.124800
      7 NZ           5.0580    -0.3380     0.2690 nz         1 NMK      -0.836600
      8 C           -2.4390    -0.7360    -0.0840 c          1 NMK       0.904600
      9 O           -3.0780    -0.5450     0.9710 o          1 NMK      -0.821800
     10 CN          -2.3120     2.3610    -0.2790 c3         1 NMK       0.157100
     11 OXT         -2.6450    -1.6330    -0.9270 o          1 NMK      -0.821800
     12 H           -1.5550     1.3260     1.2680 hn         1 NMK       0.359800
     13 HA          -1.1690     0.3730    -1.4330 h1         1 NMK       0.042700
     14 HB2          0.0460    -0.6390     1.1680 hc         1 NMK       0.045200
     15 HB3          0.0490    -1.5350    -0.3370 hc         1 NMK       0.045200
     16 HG2          1.3730     0.2040    -1.4500 hc         1 NMK       0.053700
     17 HG3          1.2650     1.2420    -0.0430 hc         1 NMK       0.053700
     18 HD2          2.5610    -0.3970     1.3020 hc         1 NMK       0.058700
     19 HD3          2.6200    -1.5030    -0.0640 hc         1 NMK       0.058700
     20 HE2          3.9110     0.1730    -1.3880 hx         1 NMK       0.100700
     21 HE3          3.8290     1.3110    -0.0420 hx         1 NMK       0.100700
     22 HZ1          5.0770    -0.2620     1.2860 hn         1 NMK       0.448133
     23 HZ3          5.1480    -1.3270     0.0390 hn         1 NMK       0.448133
     24 HM1         -2.0220     2.6420    -1.2930 h1         1 NMK       0.020367
     25 HM2         -3.3200     1.9270    -0.3320 h1         1 NMK       0.020367
     26 HM3         -2.3820     3.2810     0.3040 h1         1 NMK       0.020367
     27 HZ2          5.8960     0.1260    -0.0800 hn         1 NMK       0.448133
@<TRIPOS>BOND
     1     1     2 1   
     2     1    10 1   
     3     1    12 1   
     4     2     3 1   
     5     2     8 1   
     6     2    13 1   
     7     3     4 1   
     8     3    14 1   
     9     3    15 1   
    10     4     5 1   
    11     4    16 1   
    12     4    17 1   
    13     5     6 1   
    14     5    18 1   
    15     5    19 1   
    16     6     7 1   
    17     6    20 1   
    18     6    21 1   
    19     7    22 1   
    20     7    23 1   
    21     7    27 1   
    22     8     9 1   
    23     8    11 1   
    24    10    24 1   
    25    10    25 1   
    26    10    26 1   
@<TRIPOS>SUBSTRUCTURE
     1 NMK         1 TEMP              0 ****  ****    0 ROOT
