@<TRIPOS>MOLECULE
NML
   12    11     1     0     0
SMALL
No Charge or Current Charge


@<TRIPOS>ATOM
      1 C1           0.8710    -0.1720     0.4840 c3         1 NML      -0.179100
      2 C2           0.5420    -0.8010     1.8320 c          1 NML       0.596100
      3 O2          -0.3790    -1.5900     1.9850 o          1 NML      -0.608100
      4 N3           1.3590    -0.4130     2.8670 ns         1 NML      -0.510900
      5 C3           1.2290    -0.8880     4.2470 c3         1 NML       0.095300
      6 HN3          2.0970     0.2460     2.6470 hn         1 NML       0.312500
      7 H11          1.9200    -0.3770     0.2410 hc         1 NML       0.058700
      8 H12          0.1980    -0.5060    -0.3140 hc         1 NML       0.058700
      9 H13          0.8660     0.9190     0.5880 hc         1 NML       0.058700
     10 H31          0.2400    -0.6180     4.6390 h1         1 NML       0.039367
     11 H32          2.0050    -0.4240     4.8690 h1         1 NML       0.039367
     12 H33          1.3480    -1.9790     4.2750 h1         1 NML       0.039367
@<TRIPOS>BOND
     1     1     2 1   
     2     1     7 1   
     3     1     8 1   
     4     1     9 1   
     5     2     3 2   
     6     2     4 1   
     7     4     5 1   
     8     4     6 1   
     9     5    10 1   
    10     5    11 1   
    11     5    12 1   
@<TRIPOS>SUBSTRUCTURE
     1 NML         1 TEMP              0 ****  ****    0 ROOT
