@<TRIPOS>MOLECULE
NML
   12    11     1     0     0
SMALL
bcc


@<TRIPOS>ATOM
      1 C1           0.9370    -0.1840     0.5070 c3         1 NML      -0.179100
      2 C2           0.7040    -0.8750     1.8280 c          1 NML       0.663100
      3 O2           0.0280    -1.8940     1.9160 o          1 NML      -0.608100
      4 N3           1.2850    -0.3080     2.8930 ns         1 NML      -0.577900
      5 C3           1.1590    -0.8480     4.2260 c3         1 NML       0.095300
      6 HN3          1.8270     0.5300     2.7680 hn         1 NML       0.312500
      7 H11          1.4520    -0.8650    -0.1710 hc         1 NML       0.058700
      8 H12         -0.0220     0.0630     0.0520 hc         1 NML       0.058700
      9 H13          1.5260     0.7280     0.5890 hc         1 NML       0.058700
     10 H31          0.1230    -0.8470     4.5660 h1         1 NML       0.039367
     11 H32          1.7420    -0.2320     4.9040 h1         1 NML       0.039367
     12 H33          1.5350    -1.8700     4.2830 h1         1 NML       0.039367
@<TRIPOS>BOND
     1     1     2 1   
     2     1     7 1   
     3     1     8 1   
     4     1     9 1   
     5     2     3 2   
     6     2     4 1   
     7     4     5 1   
     8     4     6 1   
     9     5    10 1   
    10     5    11 1   
    11     5    12 1   
@<TRIPOS>SUBSTRUCTURE
     1 NML         1 TEMP              0 ****  ****    0 ROOT
