@<TRIPOS>MOLECULE
NMM
   28    27     1     0     0
SMALL
bcc


@<TRIPOS>ATOM
      1 CAA         -0.9950   -22.7960    39.5630 c3         1 NMM       0.221100
      2 NH2          0.3770   -22.3660    39.4650 nu         1 NMM      -0.848200
      3 CZ           0.8490   -21.3770    40.2850 c2         1 NMM       0.815100
      4 NH1          0.0360   -20.7260    41.0410 n2         1 NMM      -0.930100
      5 NE           2.2050   -21.1750    40.2150 nu         1 NMM      -0.897200
      6 CD           3.0220   -21.5810    39.0840 c3         1 NMM       0.214800
      7 CG           4.4030   -20.9430    39.1460 c3         1 NMM      -0.089400
      8 CB           4.3850   -19.4270    38.9770 c3         1 NMM      -0.058400
      9 CA           5.7700   -18.8100    38.7950 c3         1 NMM       0.009500
     10 C            5.6710   -17.2820    38.5250 c          1 NMM       0.904600
     11 O            6.4160   -16.5350    39.1900 o          1 NMM      -0.837800
     12 OXT          4.8640   -16.9310    37.6390 o          1 NMM      -0.837800
     13 N            6.6340   -19.1900    39.9060 n8         1 NMM      -0.890800
     14 HAA1        -1.1560   -23.5960    38.8440 h1         1 NMM       0.029033
     15 HAA2        -1.6750   -21.9810    39.3170 h1         1 NMM       0.029033
     16 HAA3        -1.2640   -23.1660    40.5560 h1         1 NMM       0.029033
     17 HH2          1.0320   -23.0860    39.2100 hn         1 NMM       0.413800
     18 HH1          0.5150   -19.9700    41.5160 hn         1 NMM       0.376400
     19 HE           2.5220   -20.3540    40.7030 hn         1 NMM       0.428800
     20 HD3          2.5460   -21.3150    38.1330 h1         1 NMM       0.025200
     21 HD2          3.1460   -22.6690    39.0840 h1         1 NMM       0.025200
     22 HG3          5.0020   -21.3840    38.3440 hc         1 NMM       0.047200
     23 HG2          4.8910   -21.2240    40.0810 hc         1 NMM       0.047200
     24 HB3          3.9000   -18.9510    39.8400 hc         1 NMM       0.039700
     25 HB2          3.7750   -19.1700    38.1090 hc         1 NMM       0.039700
     26 HA           6.2010   -19.2540    37.8860 h1         1 NMM       0.038700
     27 H            6.2010   -18.8740    40.7670 hn         1 NMM       0.326300
     28 H2           7.4840   -18.6420    39.8430 hn         1 NMM       0.326300
@<TRIPOS>BOND
     1     1     2 1   
     2     1    14 1   
     3     1    15 1   
     4     1    16 1   
     5     2     3 1   
     6     2    17 1   
     7     3     4 2   
     8     3     5 1   
     9     4    18 1   
    10     5     6 1   
    11     5    19 1   
    12     6     7 1   
    13     6    20 1   
    14     6    21 1   
    15     7     8 1   
    16     7    22 1   
    17     7    23 1   
    18     8     9 1   
    19     8    24 1   
    20     8    25 1   
    21     9    10 1   
    22     9    13 1   
    23     9    26 1   
    24    10    11 1   
    25    10    12 1   
    26    13    27 1   
    27    13    28 1   
@<TRIPOS>SUBSTRUCTURE
     1 NMM         1 TEMP              0 ****  ****    0 ROOT
