@<TRIPOS>MOLECULE
NMM
   28    27     1     0     0
SMALL
No Charge or Current Charge


@<TRIPOS>ATOM
      1 CAA         -0.9320   -23.1660    40.1130 c3         1 NMM       0.221100
      2 NH2          0.3390   -22.5440    39.7190 nu         1 NMM      -0.848200
      3 CZ           0.6960   -21.2820    39.9950 c2         1 NMM       0.815100
      4 NH1         -0.0150   -20.4890    40.6530 n2         1 NMM      -0.930100
      5 NE           2.0160   -21.0980    39.8890 nu         1 NMM      -0.897200
      6 CD           2.7650   -21.3120    38.6450 c3         1 NMM       0.214800
      7 CG           4.2300   -20.8500    38.7910 c3         1 NMM      -0.089400
      8 CB           4.4000   -19.3110    38.9040 c3         1 NMM      -0.058400
      9 CA           5.8770   -18.8290    38.9330 c3         1 NMM       0.009500
     10 C            5.9500   -17.2580    38.6850 c          1 NMM       0.904600
     11 O            5.6770   -16.5000    39.6120 o          1 NMM      -0.837800
     12 OXT          6.3940   -16.8510    37.6160 o          1 NMM      -0.837800
     13 N            6.5880   -19.3610    40.1570 n8         1 NMM      -0.890800
     14 HAA1        -0.9710   -24.2040    39.7580 h1         1 NMM       0.029033
     15 HAA2        -1.7790   -22.6180    39.6790 h1         1 NMM       0.029033
     16 HAA3        -1.0360   -23.1680    41.2060 h1         1 NMM       0.029033
     17 HH2          1.1330   -23.1480    39.5640 hn         1 NMM       0.413800
     18 HH1          0.5540   -19.6590    40.8420 hn         1 NMM       0.376400
     19 HE           2.3930   -20.4040    40.5190 hn         1 NMM       0.428800
     20 HD3          2.2900   -20.7650    37.8200 h1         1 NMM       0.025200
     21 HD2          2.7570   -22.3800    38.3880 h1         1 NMM       0.025200
     22 HG3          4.7840   -21.1970    37.9100 hc         1 NMM       0.047200
     23 HG2          4.6810   -21.3470    39.6580 hc         1 NMM       0.047200
     24 HB3          3.8820   -18.9420    39.7970 hc         1 NMM       0.039700
     25 HB2          3.9030   -18.8470    38.0430 hc         1 NMM       0.039700
     26 HA           6.3770   -19.2860    38.0680 h1         1 NMM       0.038700
     27 H            6.2290   -18.8690    40.9830 hn         1 NMM       0.326300
     28 H2           7.5760   -19.0900    40.1180 hn         1 NMM       0.326300
@<TRIPOS>BOND
     1     1     2 1   
     2     1    14 1   
     3     1    15 1   
     4     1    16 1   
     5     2     3 1   
     6     2    17 1   
     7     3     4 2   
     8     3     5 1   
     9     4    18 1   
    10     5     6 1   
    11     5    19 1   
    12     6     7 1   
    13     6    20 1   
    14     6    21 1   
    15     7     8 1   
    16     7    22 1   
    17     7    23 1   
    18     8     9 1   
    19     8    24 1   
    20     8    25 1   
    21     9    10 1   
    22     9    13 1   
    23     9    26 1   
    24    10    11 1   
    25    10    12 1   
    26    13    27 1   
    27    13    28 1   
@<TRIPOS>SUBSTRUCTURE
     1 NMM         1 TEMP              0 ****  ****    0 ROOT
