@<TRIPOS>MOLECULE
NMP
   59    59     1     0     0
SMALL
bcc


@<TRIPOS>ATOM
      1 S27         -1.4510     0.1620   -10.0180 sh         1 NMP      -0.404900
      2 C26         -0.5120    -0.7330    -8.7370 c3         1 NMP       0.036700
      3 C25         -0.4420     0.1250    -7.4840 c3         1 NMP      -0.088400
      4 C24          0.3160    -0.5950    -6.3800 c3         1 NMP       0.103000
      5 N23          0.3440     0.2150    -5.1790 ns         1 NMP      -0.565900
      6 C20          1.0060    -0.1480    -4.0790 c          1 NMP       0.655100
      7 O21          1.6520    -1.1840    -3.9900 o          1 NMP      -0.609100
      8 C19          0.9570     0.8580    -2.9330 c3         1 NMP       0.035700
      9 C22          2.0530     1.9080    -3.1180 c3         1 NMP      -0.109100
     10 N18          1.1100     0.1270    -1.6970 ns         1 NMP      -0.562900
     11 C16          0.6620     0.5710    -0.5180 c          1 NMP       0.659100
     12 O17          0.0560     1.6220    -0.3710 o          1 NMP      -0.619100
     13 C15          0.9570    -0.3610     0.6450 c3         1 NMP       0.021000
     14 N14          0.5110     0.2320     1.8720 ns         1 NMP      -0.576900
     15 C6           0.6700    -0.3760     3.0590 c          1 NMP       0.630100
     16 O7           1.2200    -1.4590     3.1690 o          1 NMP      -0.576100
     17 C5           0.1270     0.4040     4.2610 c3         1 NMP       0.186500
     18 N4           1.1830     0.6520     5.2200 nu         1 NMP      -0.843200
     19 C2           1.7360    -0.2590     6.0870 c2         1 NMP       0.797100
     20 N3           2.9780     0.1480     6.5480 nv         1 NMP      -0.957800
     21 N1           1.1520    -1.3470     6.4150 n2         1 NMP      -0.863100
     22 C8          -1.1450    -0.2460     4.8200 c6         1 NMP      -0.056700
     23 C9          -1.6410     0.4880     6.0650 c6         1 NMP      -0.067900
     24 C10         -2.9410    -0.1110     6.5910 c6         1 NMP      -0.071900
     25 C11         -4.0250    -0.1300     5.5190 c6         1 NMP      -0.075400
     26 C12         -3.5390    -0.8610     4.2740 c6         1 NMP      -0.071900
     27 C13         -2.2380    -0.2640     3.7470 c6         1 NMP      -0.067900
     28 H27         -1.2670    -0.7080   -11.0150 hs         1 NMP       0.216800
     29 H261         0.4900    -0.9460    -9.1100 h1         1 NMP       0.062700
     30 H262        -1.0040    -1.6810    -8.5220 h1         1 NMP       0.062700
     31 H251        -1.4530     0.3600    -7.1410 hc         1 NMP       0.060200
     32 H252         0.0520     1.0730    -7.7130 hc         1 NMP       0.060200
     33 H241         1.3370    -0.8050    -6.7060 h1         1 NMP       0.055200
     34 H242        -0.1580    -1.5580    -6.1700 h1         1 NMP       0.055200
     35 H23         -0.2270     1.0460    -5.1530 hn         1 NMP       0.320500
     36 H19         -0.0150     1.3560    -2.9230 h1         1 NMP       0.079700
     37 H221         3.0380     1.4410    -3.1410 hc         1 NMP       0.052033
     38 H222         1.9140     2.4620    -4.0470 hc         1 NMP       0.052033
     39 H223         2.0280     2.6210    -2.2960 hc         1 NMP       0.052033
     40 H18          1.6390    -0.7330    -1.7390 hn         1 NMP       0.344500
     41 H151         0.4610    -1.3200     0.4610 h1         1 NMP       0.069700
     42 H152         2.0300    -0.5700     0.6780 h1         1 NMP       0.069700
     43 H14          0.0450     1.1250     1.8100 hn         1 NMP       0.338500
     44 H5          -0.1660     1.4010     3.9140 h1         1 NMP       0.048700
     45 H4           1.8250     1.3590     4.8980 hn         1 NMP       0.412800
     46 H31          3.2740    -0.3000     7.4010 hn         1 NMP       0.391300
     47 H32          3.1430     1.1420     6.5860 hn         1 NMP       0.391300
     48 H1           1.7020    -1.8450     7.1050 hn         1 NMP       0.379400
     49 H8          -0.9090    -1.2730     5.1030 hc         1 NMP       0.101700
     50 H91         -0.8770     0.4520     6.8420 hc         1 NMP       0.038700
     51 H92         -1.8010     1.5470     5.8250 hc         1 NMP       0.038700
     52 H101        -2.7540    -1.1340     6.9360 hc         1 NMP       0.040200
     53 H102        -3.2800     0.4510     7.4650 hc         1 NMP       0.040200
     54 H111        -4.9360    -0.5970     5.9020 hc         1 NMP       0.035700
     55 H112        -4.2900     0.8990     5.2530 hc         1 NMP       0.035700
     56 H121        -3.3820    -1.9190     4.5120 hc         1 NMP       0.040200
     57 H122        -4.3020    -0.8310     3.4920 hc         1 NMP       0.040200
     58 H131        -2.4290     0.7600     3.4010 hc         1 NMP       0.038700
     59 H132        -1.9140    -0.8300     2.8690 hc         1 NMP       0.038700
@<TRIPOS>BOND
     1     1     2 1   
     2     1    28 1   
     3     2     3 1   
     4     2    29 1   
     5     2    30 1   
     6     3     4 1   
     7     3    31 1   
     8     3    32 1   
     9     4     5 1   
    10     4    33 1   
    11     4    34 1   
    12     5     6 1   
    13     5    35 1   
    14     6     7 2   
    15     6     8 1   
    16     8     9 1   
    17     8    10 1   
    18     8    36 1   
    19     9    37 1   
    20     9    38 1   
    21     9    39 1   
    22    10    11 1   
    23    10    40 1   
    24    11    12 2   
    25    11    13 1   
    26    13    14 1   
    27    13    41 1   
    28    13    42 1   
    29    14    15 1   
    30    14    43 1   
    31    15    16 2   
    32    15    17 1   
    33    17    18 1   
    34    17    22 1   
    35    17    44 1   
    36    18    19 1   
    37    18    45 1   
    38    19    20 1   
    39    19    21 2   
    40    20    46 1   
    41    20    47 1   
    42    21    48 1   
    43    22    23 1   
    44    22    27 1   
    45    22    49 1   
    46    23    24 1   
    47    23    50 1   
    48    23    51 1   
    49    24    25 1   
    50    24    52 1   
    51    24    53 1   
    52    25    26 1   
    53    25    54 1   
    54    25    55 1   
    55    26    27 1   
    56    26    56 1   
    57    26    57 1   
    58    27    58 1   
    59    27    59 1   
@<TRIPOS>SUBSTRUCTURE
     1 NMP         1 TEMP              0 ****  ****    0 ROOT
