@<TRIPOS>MOLECULE
NMP
   59    59     1     0     0
SMALL
No Charge or Current Charge


@<TRIPOS>ATOM
      1 S27         -0.2550     0.6290   -10.7030 sh         1 NMP      -0.452800
      2 C26         -0.0000    -0.4580    -9.2260 c3         1 NMP       0.084600
      3 C25          0.1000     0.3320    -7.9070 c3         1 NMP      -0.088400
      4 C24          0.3120    -0.5780    -6.6830 c3         1 NMP       0.103000
      5 N23          0.4070     0.1950    -5.4440 ns         1 NMP      -0.498900
      6 C20          0.6960    -0.3490    -4.2110 c          1 NMP       0.588100
      7 O21          0.8880    -1.5510    -4.0680 o          1 NMP      -0.609100
      8 C19          0.7510     0.6670    -3.0300 c3         1 NMP       0.035700
      9 C22          1.9220     1.6670    -3.1840 c3         1 NMP      -0.109100
     10 N18          0.8390    -0.0480    -1.7370 ns         1 NMP      -0.495900
     11 C16          0.5100     0.4850    -0.5090 c          1 NMP       0.592100
     12 O17          0.0900     1.6300    -0.3890 o          1 NMP      -0.619100
     13 C15          0.7040    -0.4740     0.6890 c3         1 NMP       0.021000
     14 N14          0.3310     0.1570     1.9760 ns         1 NMP      -0.509900
     15 C6           0.3870    -0.4740     3.2030 c          1 NMP       0.563100
     16 O7           0.7750    -1.6330     3.3000 o          1 NMP      -0.576100
     17 C5          -0.0690     0.3970     4.4340 c3         1 NMP       0.186500
     18 N4           1.0750     0.7410     5.3320 nu         1 NMP      -0.898400
     19 C2           1.9430    -0.1440     5.7710 c2         1 NMP       0.797100
     20 N3           3.0790     0.4770     5.5670 nv         1 NMP      -1.068200
     21 N1           1.6840    -0.8510     6.7620 n2         1 NMP      -0.863100
     22 C8          -1.2860    -0.2130     5.2180 c6         1 NMP      -0.056700
     23 C9          -1.8160     0.7540     6.3230 c6         1 NMP      -0.067900
     24 C10         -3.0150     0.1480     7.0950 c6         1 NMP      -0.071900
     25 C11         -4.1610    -0.2420     6.1330 c6         1 NMP      -0.075400
     26 C12         -3.6560    -1.2090     5.0380 c6         1 NMP      -0.071900
     27 C13         -2.4570    -0.6080     4.2630 c6         1 NMP      -0.067900
     28 H27         -0.2920    -0.3710   -11.6200 hs         1 NMP       0.216800
     29 H261         0.9210    -1.0370    -9.3770 h1         1 NMP       0.062700
     30 H262        -0.8390    -1.1640    -9.1670 h1         1 NMP       0.062700
     31 H251        -0.8180     0.9160    -7.7700 hc         1 NMP       0.060200
     32 H252         0.9320     1.0430    -7.9790 hc         1 NMP       0.060200
     33 H241         1.2370    -1.1570    -6.8120 h1         1 NMP       0.055200
     34 H242        -0.5260    -1.2830    -6.5970 h1         1 NMP       0.055200
     35 H23          0.2550     1.1960    -5.4820 hn         1 NMP       0.320500
     36 H19         -0.1940     1.2270    -3.0540 h1         1 NMP       0.079700
     37 H221         2.8840     1.1400    -3.1850 hc         1 NMP       0.052033
     38 H222         1.8380     2.2300    -4.1210 hc         1 NMP       0.052033
     39 H223         1.9280     2.3910    -2.3600 hc         1 NMP       0.052033
     40 H18          1.1530    -1.0140    -1.7490 hn         1 NMP       0.344500
     41 H151         0.0850    -1.3650     0.5220 h1         1 NMP       0.069700
     42 H152         1.7580    -0.7790     0.7200 h1         1 NMP       0.069700
     43 H14          0.0090     1.1210     1.9590 hn         1 NMP       0.338500
     44 H5          -0.4400     1.3400     4.0090 h1         1 NMP       0.048700
     45 H4           1.5720     1.5960     5.1230 hn         1 NMP       0.468000
     46 H31          3.3770     0.3990     4.6030 hn         1 NMP       0.446500
     47 H32          3.8020     0.2120     6.2220 hn         1 NMP       0.446500
     48 H1           2.5700    -1.1910     7.1460 hn         1 NMP       0.379400
     49 H8          -0.9170    -1.1290     5.7000 hc         1 NMP       0.101700
     50 H91         -1.0180     0.9890     7.0400 hc         1 NMP       0.038700
     51 H92         -2.1160     1.7090     5.8700 hc         1 NMP       0.038700
     52 H101        -2.6850    -0.7360     7.6570 hc         1 NMP       0.040200
     53 H102        -3.3820     0.8700     7.8370 hc         1 NMP       0.040200
     54 H111        -4.9790    -0.7100     6.6970 hc         1 NMP       0.035700
     55 H112        -4.5780     0.6610     5.6670 hc         1 NMP       0.035700
     56 H121        -3.3600    -2.1640     5.4950 hc         1 NMP       0.040200
     57 H122        -4.4720    -1.4390     4.3390 hc         1 NMP       0.040200
     58 H131        -2.7910     0.2750     3.6990 hc         1 NMP       0.038700
     59 H132        -2.1190    -1.3420     3.5200 hc         1 NMP       0.038700
@<TRIPOS>BOND
     1     1     2 1   
     2     1    28 1   
     3     2     3 1   
     4     2    29 1   
     5     2    30 1   
     6     3     4 1   
     7     3    31 1   
     8     3    32 1   
     9     4     5 1   
    10     4    33 1   
    11     4    34 1   
    12     5     6 1   
    13     5    35 1   
    14     6     7 2   
    15     6     8 1   
    16     8     9 1   
    17     8    10 1   
    18     8    36 1   
    19     9    37 1   
    20     9    38 1   
    21     9    39 1   
    22    10    11 1   
    23    10    40 1   
    24    11    12 2   
    25    11    13 1   
    26    13    14 1   
    27    13    41 1   
    28    13    42 1   
    29    14    15 1   
    30    14    43 1   
    31    15    16 2   
    32    15    17 1   
    33    17    18 1   
    34    17    22 1   
    35    17    44 1   
    36    18    19 1   
    37    18    45 1   
    38    19    20 1   
    39    19    21 2   
    40    20    46 1   
    41    20    47 1   
    42    21    48 1   
    43    22    23 1   
    44    22    27 1   
    45    22    49 1   
    46    23    24 1   
    47    23    50 1   
    48    23    51 1   
    49    24    25 1   
    50    24    52 1   
    51    24    53 1   
    52    25    26 1   
    53    25    54 1   
    54    25    55 1   
    55    26    27 1   
    56    26    56 1   
    57    26    57 1   
    58    27    58 1   
    59    27    59 1   
@<TRIPOS>SUBSTRUCTURE
     1 NMP         1 TEMP              0 ****  ****    0 ROOT
