@<TRIPOS>MOLECULE
NMU
   11    10     1     0     0
SMALL
bcc


@<TRIPOS>ATOM
      1 C1          -0.4810    -0.0900     0.0130 c          1 NMU       0.768100
      2 O2          -0.4480    -1.3160    -0.0440 o          1 NMU      -0.639100
      3 N3          -1.6490     0.6040     0.1560 nt         1 NMU      -0.665000
      4 N4           0.6400     0.6660    -0.0290 ns         1 NMU      -0.593900
      5 C5           1.9530     0.0720    -0.0160 c3         1 NMU       0.108300
      6 HN31        -1.6770     1.5880    -0.0530 hn         1 NMU       0.299500
      7 HN32        -2.4930     0.1040    -0.0680 hn         1 NMU       0.299500
      8 HN4          0.5730     1.6590     0.1170 hn         1 NMU       0.307500
      9 H51          2.6880     0.8680    -0.0980 h1         1 NMU       0.038033
     10 H52          2.1540    -0.4820     0.9040 h1         1 NMU       0.038033
     11 H53          2.0970    -0.6040    -0.8580 h1         1 NMU       0.038033
@<TRIPOS>BOND
     1     1     2 2   
     2     1     3 1   
     3     1     4 1   
     4     3     6 1   
     5     3     7 1   
     6     4     5 1   
     7     4     8 1   
     8     5     9 1   
     9     5    10 1   
    10     5    11 1   
@<TRIPOS>SUBSTRUCTURE
     1 NMU         1 TEMP              0 ****  ****    0 ROOT
