@<TRIPOS>MOLECULE
NMU
   11    10     1     0     0
SMALL
No Charge or Current Charge


@<TRIPOS>ATOM
      1 C1          -0.5030    -0.1250     0.0080 c          1 NMU       0.634100
      2 O2          -0.5120    -1.3410     0.0110 o          1 NMU      -0.639100
      3 N3          -1.6310     0.5970     0.0130 nt         1 NMU      -0.598000
      4 N4           0.6290     0.6360    -0.0010 ns         1 NMU      -0.526900
      5 C5           1.9860     0.0870    -0.0080 c3         1 NMU       0.108300
      6 HN31        -1.5930     1.6050     0.0110 hn         1 NMU       0.299500
      7 HN32        -2.5190     0.1180     0.0200 hn         1 NMU       0.299500
      8 HN4          0.5130     1.6410    -0.0030 hn         1 NMU       0.307500
      9 H51          2.7140     0.9090    -0.0150 h1         1 NMU       0.038033
     10 H52          2.1420    -0.5260     0.8890 h1         1 NMU       0.038033
     11 H53          2.1310    -0.5320    -0.9030 h1         1 NMU       0.038033
@<TRIPOS>BOND
     1     1     2 2   
     2     1     3 1   
     3     1     4 1   
     4     3     6 1   
     5     3     7 1   
     6     4     5 1   
     7     4     8 1   
     8     5     9 1   
     9     5    10 1   
    10     5    11 1   
@<TRIPOS>SUBSTRUCTURE
     1 NMU         1 TEMP              0 ****  ****    0 ROOT
