@<TRIPOS>MOLECULE
NMV
   35    36     1     0     0
SMALL
No Charge or Current Charge


@<TRIPOS>ATOM
      1 C1         -18.1470    44.3040   -14.3510 c3         1 NMV       0.196100
      2 N1         -18.6470    45.4800   -13.6150 n8         1 NMV      -0.998200
      3 O1         -23.2870    42.4570    -7.0700 o          1 NMV      -0.613100
      4 C2         -18.0780    43.0710   -13.4590 ca         1 NMV      -0.082300
      5 N2         -18.0040    39.8940    -9.5130 nu         1 NMV      -0.938100
      6 C3         -19.1390    42.1440   -13.4410 ca         1 NMV      -0.095000
      7 N3         -18.7230    41.1870    -7.8690 nb         1 NMV      -0.770000
      8 C4         -19.0710    41.0010   -12.6250 ca         1 NMV      -0.103000
      9 N4         -21.7270    43.2120    -5.6930 nt         1 NMV      -0.604000
     10 C5         -17.9410    40.7690   -11.8140 ca         1 NMV      -0.117300
     11 C6         -17.8640    39.5300   -10.9270 c3         1 NMV       0.283100
     12 C7         -19.0830    40.4890    -8.9390 ca         1 NMV       0.641900
     13 C8         -20.3980    40.3520    -9.3900 ca         1 NMV      -0.242000
     14 C10        -21.0590    41.7710    -7.5570 ca         1 NMV      -0.278600
     15 C11        -19.7020    41.8230    -7.1900 ca         1 NMV       0.420900
     16 C12        -22.1070    42.4950    -6.7700 c          1 NMV       0.631700
     17 C9         -21.4160    41.0110    -8.6890 ca         1 NMV       0.018000
     18 C13        -16.8800    41.6960   -11.8350 ca         1 NMV      -0.103000
     19 C14        -16.9480    42.8390   -12.6510 ca         1 NMV      -0.095000
     20 H3         -18.8130    44.1100   -15.2030 h1         1 NMV       0.035200
     21 H4         -17.1470    44.5320   -14.7470 h1         1 NMV       0.035200
     22 H2         -18.7650    46.2590   -14.2740 hn         1 NMV       0.397500
     23 H1         -19.6020    45.2830   -13.2950 hn         1 NMV       0.397500
     24 H9         -17.1570    40.1750    -9.0290 hn         1 NMV       0.506000
     25 H5         -20.0170    42.3080   -14.0610 ha         1 NMV       0.120500
     26 H6         -19.8980    40.2950   -12.6250 ha         1 NMV       0.113500
     27 H14        -22.4310    43.7010    -5.1600 hn         1 NMV       0.309000
     28 H13        -20.7570    43.2610    -5.4220 hn         1 NMV       0.309000
     29 H7         -18.6460    38.8130   -11.2170 h1         1 NMV       0.055700
     30 H8         -16.8960    39.0350   -11.0920 h1         1 NMV       0.055700
     31 H10        -20.6280    39.7470   -10.2600 ha         1 NMV       0.131000
     32 H12        -19.3690    42.3900    -6.3220 h4         1 NMV       0.010100
     33 H11        -22.4520    40.9280    -9.0160 ha         1 NMV       0.137000
     34 H15        -16.0010    41.5320   -11.2150 ha         1 NMV       0.113500
     35 H16        -16.1230    43.5470   -12.6550 ha         1 NMV       0.120500
@<TRIPOS>BOND
     1     1     2 1   
     2     1     4 1   
     3     1    20 1   
     4     1    21 1   
     5     2    22 1   
     6     2    23 1   
     7     3    16 2   
     8     4     6 ar  
     9     4    19 ar  
    10     5    11 1   
    11     5    12 1   
    12     5    24 1   
    13     6     8 ar  
    14     6    25 1   
    15     7    12 ar  
    16     7    15 ar  
    17     8    10 ar  
    18     8    26 1   
    19     9    16 1   
    20     9    27 1   
    21     9    28 1   
    22    10    11 1   
    23    10    18 ar  
    24    11    29 1   
    25    11    30 1   
    26    12    13 ar  
    27    13    17 ar  
    28    13    31 1   
    29    14    15 ar  
    30    14    16 1   
    31    14    17 ar  
    32    15    32 1   
    33    17    33 1   
    34    18    19 ar  
    35    18    34 1   
    36    19    35 1   
@<TRIPOS>SUBSTRUCTURE
     1 NMV         1 TEMP              0 ****  ****    0 ROOT
