@<TRIPOS>MOLECULE
NMV
   35    36     1     0     0
SMALL
abcg2


@<TRIPOS>ATOM
      1 C1         -18.1470    44.1460   -14.6750 c3         1 NMV       0.196100
      2 N1         -18.4050    45.4200   -14.0230 n8         1 NMV      -0.998200
      3 O1         -23.2130    42.3550    -6.8240 o          1 NMV      -0.613100
      4 C2         -18.1400    43.0070   -13.6870 ca         1 NMV      -0.082300
      5 N2         -18.0030    40.0400    -9.5140 nu         1 NMV      -0.938100
      6 C3         -18.8030    41.8180   -13.9640 ca         1 NMV      -0.095000
      7 N3         -18.7650    40.8570    -7.5270 nb         1 NMV      -0.770000
      8 C4         -18.7850    40.7610   -13.0620 ca         1 NMV      -0.103000
      9 N4         -21.6840    42.8980    -5.2640 nt         1 NMV      -0.604000
     10 C5         -18.1010    40.8660   -11.8580 ca         1 NMV      -0.117300
     11 C6         -18.0620    39.6900   -10.9070 c3         1 NMV       0.283100
     12 C7         -19.0100    40.6040    -8.8180 ca         1 NMV       0.641900
     13 C8         -20.2590    40.8990    -9.4030 ca         1 NMV      -0.242000
     14 C10        -20.9750    41.7580    -7.2720 ca         1 NMV      -0.278600
     15 C11        -19.7150    41.4100    -6.7950 ca         1 NMV       0.420900
     16 C12        -22.0490    42.3630    -6.4450 c          1 NMV       0.631700
     17 C9         -21.2290    41.4660    -8.6160 ca         1 NMV       0.018000
     18 C13        -17.4400    42.0580   -11.5740 ca         1 NMV      -0.103000
     19 C14        -17.4620    43.1130   -12.4730 ca         1 NMV      -0.095000
     20 H3         -18.8540    43.9050   -15.4800 h1         1 NMV       0.035200
     21 H4         -17.1630    44.2080   -15.1480 h1         1 NMV       0.035200
     22 H2         -18.3070    46.1680   -14.6970 hn         1 NMV       0.397500
     23 H1         -19.3670    45.4490   -13.7090 hn         1 NMV       0.397500
     24 H9         -17.1430    39.8890    -9.0130 hn         1 NMV       0.506000
     25 H5         -19.3530    41.7150   -14.8930 ha         1 NMV       0.120500
     26 H6         -19.3230    39.8500   -13.2970 ha         1 NMV       0.113500
     27 H14        -22.3830    43.3550    -4.7020 hn         1 NMV       0.309000
     28 H13        -20.7260    43.0920    -5.0280 hn         1 NMV       0.309000
     29 H7         -18.9190    39.0370   -11.1010 h1         1 NMV       0.055700
     30 H8         -17.1770    39.0870   -11.1140 h1         1 NMV       0.055700
     31 H10        -20.4550    40.6900   -10.4450 ha         1 NMV       0.131000
     32 H12        -19.4520    41.5640    -5.7530 h4         1 NMV       0.010100
     33 H11        -22.1950    41.6970    -9.0460 ha         1 NMV       0.137000
     34 H15        -16.9070    42.1690   -10.6370 ha         1 NMV       0.113500
     35 H16        -16.9510    44.0340   -12.2260 ha         1 NMV       0.120500
@<TRIPOS>BOND
     1     1     2 1   
     2     1     4 1   
     3     1    20 1   
     4     1    21 1   
     5     2    22 1   
     6     2    23 1   
     7     3    16 2   
     8     4     6 ar  
     9     4    19 ar  
    10     5    11 1   
    11     5    12 1   
    12     5    24 1   
    13     6     8 ar  
    14     6    25 1   
    15     7    12 ar  
    16     7    15 ar  
    17     8    10 ar  
    18     8    26 1   
    19     9    16 1   
    20     9    27 1   
    21     9    28 1   
    22    10    11 1   
    23    10    18 ar  
    24    11    29 1   
    25    11    30 1   
    26    12    13 ar  
    27    13    17 ar  
    28    13    31 1   
    29    14    15 ar  
    30    14    16 1   
    31    14    17 ar  
    32    15    32 1   
    33    17    33 1   
    34    18    19 ar  
    35    18    34 1   
    36    19    35 1   
@<TRIPOS>SUBSTRUCTURE
     1 NMV         1 TEMP              0 ****  ****    0 ROOT
