@<TRIPOS>MOLECULE
NMW
   52    55     1     0     0
SMALL
abcg2


@<TRIPOS>ATOM
      1 C4         -44.6840    50.2020    16.3450 ca         1 NMW      -0.068300
      2 C14        -43.4650    52.9280    18.1390 ca         1 NMW       0.345900
      3 C5         -43.7850    51.1310    15.8580 ca         1 NMW      -0.108300
      4 C6         -44.0960    51.9000    14.7410 ca         1 NMW      -0.145000
      5 C11        -41.5710    51.7090    18.8890 ca         1 NMW      -0.064000
      6 C7         -45.3210    51.7510    14.1110 ca         1 NMW       0.112100
      7 C8         -44.8320    53.4000    12.4860 c3         1 NMW       0.143900
      8 C9         -42.4590    51.2180    16.5620 c6         1 NMW       0.200300
      9 C10        -42.5110    51.9460    17.8920 ca         1 NMW      -0.140300
     10 C12        -41.6340    52.4350    20.0670 ca         1 NMW      -0.168000
     11 C13        -42.6340    53.3860    20.2070 ca         1 NMW       0.334900
     12 N1         -43.5320    53.6330    19.2610 nb         1 NMW      -0.665000
     13 N2         -41.9540    49.8570    16.7440 n          1 NMW      -0.386800
     14 C3         -45.9130    50.0350    15.7090 ca         1 NMW      -0.164000
     15 O3         -40.5960    50.1330    14.9610 o          1 NMW      -0.647100
     16 C15        -40.9890    49.4250    15.8990 c          1 NMW       0.637700
     17 C16        -40.3830    48.0910    16.0900 ca         1 NMW      -0.303600
     18 C21        -39.8500    47.4250    14.9640 ca         1 NMW       0.249100
     19 O5         -39.8640    47.9650    13.7440 oh         1 NMW      -0.540100
     20 C20        -39.2950    46.1570    15.0990 ca         1 NMW      -0.216000
     21 C19        -39.1930    45.5680    16.3510 ca         1 NMW       0.206100
     22 O4         -38.6390    44.3500    16.4190 oh         1 NMW      -0.523100
     23 C18        -39.6380    46.2500    17.4880 ca         1 NMW      -0.267000
     24 C17        -40.2240    47.4870    17.3400 ca         1 NMW       0.006000
     25 C22        -42.8210    48.9500    17.5060 c6         1 NMW       0.107000
     26 C23        -44.2780    49.4400    17.5680 c6         1 NMW      -0.045100
     27 O2         -45.7220    52.4460    13.0280 os         1 NMW      -0.320100
     28 C2         -46.2420    50.8030    14.6020 ca         1 NMW       0.122100
     29 O1         -47.4030    50.7160    13.9250 os         1 NMW      -0.319100
     30 C1         -48.3610    49.7730    14.3600 c3         1 NMW       0.144900
     31 H14        -44.2180    53.1510    17.3890 h4         1 NMW       0.028100
     32 H6         -43.3660    52.6090    14.3710 ha         1 NMW       0.128000
     33 H110       -40.7990    50.9620    18.7510 ha         1 NMW       0.124000
     34 H81        -45.3320    53.8340    11.6240 h1         1 NMW       0.041700
     35 H83        -44.6020    54.1970    13.1980 h1         1 NMW       0.041700
     36 H82        -43.8950    52.9430    12.1550 h1         1 NMW       0.041700
     37 H9         -41.7520    51.7520    15.9270 h1         1 NMW       0.104700
     38 H120       -40.9220    52.2690    20.8630 ha         1 NMW       0.123000
     39 H130       -42.7120    53.9690    21.1170 h4         1 NMW       0.019100
     40 H3         -46.6050    49.2990    16.0970 ha         1 NMW       0.120000
     41 HO5        -40.0980    48.9130    13.8490 ho         1 NMW       0.517000
     42 H20        -38.9170    45.6450    14.2230 ha         1 NMW       0.149000
     43 HO4        -38.5990    44.0460    17.3330 ho         1 NMW       0.470000
     44 H18        -39.5200    45.8170    18.4740 ha         1 NMW       0.118000
     45 H17        -40.5480    48.0030    18.2330 ha         1 NMW       0.113000
     46 H221       -42.7970    47.9730    17.0290 h1         1 NMW       0.050700
     47 H222       -42.4590    48.8250    18.5290 h1         1 NMW       0.050700
     48 H232       -44.4050    50.0770    18.4470 hc         1 NMW       0.059700
     49 H231       -44.9190    48.5720    17.7250 hc         1 NMW       0.059700
     50 H11        -49.2120    49.8670    13.6900 h1         1 NMW       0.040700
     51 H13        -47.9810    48.7490    14.3060 h1         1 NMW       0.040700
     52 H12        -48.6960    49.9700    15.3830 h1         1 NMW       0.040700
@<TRIPOS>BOND
     1     1     3 ar  
     2     1    14 ar  
     3     1    26 1   
     4     2     9 ar  
     5     2    12 ar  
     6     2    31 1   
     7     3     4 ar  
     8     3     8 1   
     9     4     6 ar  
    10     4    32 1   
    11     5     9 ar  
    12     5    10 ar  
    13     5    33 1   
    14     6    27 1   
    15     6    28 ar  
    16     7    27 1   
    17     7    34 1   
    18     7    35 1   
    19     7    36 1   
    20     8     9 1   
    21     8    13 1   
    22     8    37 1   
    23    10    11 ar  
    24    10    38 1   
    25    11    12 ar  
    26    11    39 1   
    27    13    16 1   
    28    13    25 1   
    29    14    28 ar  
    30    14    40 1   
    31    15    16 2   
    32    16    17 1   
    33    17    18 ar  
    34    17    24 ar  
    35    18    19 1   
    36    18    20 ar  
    37    19    41 1   
    38    20    21 ar  
    39    20    42 1   
    40    21    22 1   
    41    21    23 ar  
    42    22    43 1   
    43    23    24 ar  
    44    23    44 1   
    45    24    45 1   
    46    25    26 1   
    47    25    46 1   
    48    25    47 1   
    49    26    48 1   
    50    26    49 1   
    51    28    29 1   
    52    29    30 1   
    53    30    50 1   
    54    30    51 1   
    55    30    52 1   
@<TRIPOS>SUBSTRUCTURE
     1 NMW         1 TEMP              0 ****  ****    0 ROOT
