@<TRIPOS>MOLECULE
NMW
   52    55     1     0     0
SMALL
No Charge or Current Charge


@<TRIPOS>ATOM
      1 C4         -44.9050    49.7680    15.5910 ca         1 NMW      -0.068300
      2 C14        -42.7650    51.4220    18.1600 ca         1 NMW       0.345900
      3 C5         -44.0090    50.8370    15.4110 ca         1 NMW      -0.108300
      4 C6         -44.4980    52.0780    14.9560 ca         1 NMW      -0.145000
      5 C11        -41.2370    52.6680    16.7530 ca         1 NMW      -0.064000
      6 C7         -45.8730    52.2570    14.6850 ca         1 NMW       0.112100
      7 C8         -45.5470    54.6230    14.0290 c3         1 NMW       0.143900
      8 C9         -42.5080    50.6940    15.7350 c6         1 NMW       0.200300
      9 C10        -42.1580    51.6160    16.9040 ca         1 NMW      -0.140300
     10 C12        -40.9660    53.4770    17.8690 ca         1 NMW      -0.168000
     11 C13        -41.6170    53.2110    19.0850 ca         1 NMW       0.334900
     12 N1         -42.5050    52.2010    19.2380 nb         1 NMW      -0.665000
     13 N2         -42.0130    49.3120    16.0260 n          1 NMW      -0.386800
     14 C3         -46.2760    49.9350    15.3280 ca         1 NMW      -0.164000
     15 O3         -39.8440    49.8860    15.5270 o          1 NMW      -0.647100
     16 C15        -40.6240    49.0810    16.0260 c          1 NMW       0.637700
     17 C16        -40.0870    47.8550    16.7220 ca         1 NMW      -0.303600
     18 C21        -38.8080    47.3570    16.3990 ca         1 NMW       0.249100
     19 O5         -38.0450    47.9810    15.4630 oh         1 NMW      -0.540100
     20 C20        -38.2980    46.2210    17.0370 ca         1 NMW      -0.216000
     21 C19        -39.0470    45.5780    18.0260 ca         1 NMW       0.206100
     22 O4         -38.5450    44.4780    18.6460 oh         1 NMW      -0.523100
     23 C18        -40.3030    46.0780    18.3880 ca         1 NMW      -0.267000
     24 C17        -40.8210    47.2160    17.7480 ca         1 NMW       0.006000
     25 C22        -42.9240    48.2220    15.5810 c6         1 NMW       0.107000
     26 C23        -44.3710    48.4260    16.0590 c6         1 NMW      -0.045100
     27 O2         -46.3780    53.4690    14.2400 os         1 NMW      -0.320100
     28 C2         -46.7690    51.1790    14.8740 ca         1 NMW       0.122100
     29 O1         -48.1140    51.3770    14.6050 os         1 NMW      -0.319100
     30 C1         -49.0960    50.3400    14.7690 c3         1 NMW       0.144900
     31 H14        -43.4830    50.6160    18.3120 h4         1 NMW       0.028100
     32 H6         -43.7940    52.8960    14.8260 ha         1 NMW       0.128000
     33 H110       -40.7420    52.8520    15.8020 ha         1 NMW       0.124000
     34 H81        -46.1530    55.4690    13.6790 h1         1 NMW       0.041700
     35 H83        -45.0510    54.9240    14.9610 h1         1 NMW       0.041700
     36 H82        -44.7800    54.4180    13.2700 h1         1 NMW       0.041700
     37 H9         -41.9710    51.0550    14.8450 h1         1 NMW       0.104700
     38 H120       -40.2610    54.3000    17.7990 ha         1 NMW       0.123000
     39 H130       -41.4230    53.8240    19.9640 h4         1 NMW       0.019100
     40 H3         -46.9410    49.0900    15.4790 ha         1 NMW       0.120000
     41 HO5        -38.5140    48.8370    15.2780 ho         1 NMW       0.517000
     42 H20        -37.3160    45.8440    16.7690 ha         1 NMW       0.149000
     43 HO4        -39.2050    44.1750    19.3050 ho         1 NMW       0.470000
     44 H18        -40.8840    45.5960    19.1710 ha         1 NMW       0.118000
     45 H17        -41.7880    47.6020    18.0660 ha         1 NMW       0.113000
     46 H221       -42.9160    48.1940    14.4810 h1         1 NMW       0.050700
     47 H222       -42.5680    47.2400    15.9180 h1         1 NMW       0.050700
     48 H232       -44.4110    48.3740    17.1550 hc         1 NMW       0.059700
     49 H231       -44.9980    47.6090    15.6790 hc         1 NMW       0.059700
     50 H11        -50.0920    50.7140    14.5010 h1         1 NMW       0.040700
     51 H13        -48.8700    49.4820    14.1220 h1         1 NMW       0.040700
     52 H12        -49.1320    49.9970    15.8110 h1         1 NMW       0.040700
@<TRIPOS>BOND
     1     1     3 ar  
     2     1    14 ar  
     3     1    26 1   
     4     2     9 ar  
     5     2    12 ar  
     6     2    31 1   
     7     3     4 ar  
     8     3     8 1   
     9     4     6 ar  
    10     4    32 1   
    11     5     9 ar  
    12     5    10 ar  
    13     5    33 1   
    14     6    27 1   
    15     6    28 ar  
    16     7    27 1   
    17     7    34 1   
    18     7    35 1   
    19     7    36 1   
    20     8     9 1   
    21     8    13 1   
    22     8    37 1   
    23    10    11 ar  
    24    10    38 1   
    25    11    12 ar  
    26    11    39 1   
    27    13    16 1   
    28    13    25 1   
    29    14    28 ar  
    30    14    40 1   
    31    15    16 2   
    32    16    17 1   
    33    17    18 ar  
    34    17    24 ar  
    35    18    19 1   
    36    18    20 ar  
    37    19    41 1   
    38    20    21 ar  
    39    20    42 1   
    40    21    22 1   
    41    21    23 ar  
    42    22    43 1   
    43    23    24 ar  
    44    23    44 1   
    45    24    45 1   
    46    25    26 1   
    47    25    46 1   
    48    25    47 1   
    49    26    48 1   
    50    26    49 1   
    51    28    29 1   
    52    29    30 1   
    53    30    50 1   
    54    30    51 1   
    55    30    52 1   
@<TRIPOS>SUBSTRUCTURE
     1 NMW         1 TEMP              0 ****  ****    0 ROOT
