@<TRIPOS>MOLECULE
NMY
   88    91     1     0     0
SMALL
bcc


@<TRIPOS>ATOM
      1 C1          -2.2790    -0.8910     1.1910 c6         1 NMY       0.340900
      2 O1          -2.1920     0.2000     0.3250 os         1 NMY      -0.429600
      3 C2          -0.9280    -1.5950     1.3270 c6         1 NMY       0.120500
      4 N2           0.1140    -0.6840     1.7430 n8         1 NMY      -0.918800
      5 C3          -0.5670    -2.2600     0.0010 c6         1 NMY       0.121100
      6 O3           0.6220    -3.0140     0.0770 oh         1 NMY      -0.628800
      7 C4          -1.6820    -3.1950    -0.4460 c6         1 NMY       0.121100
      8 O4          -1.4280    -3.7320    -1.7220 oh         1 NMY      -0.604800
      9 C5          -2.9920    -2.4090    -0.5010 c6         1 NMY       0.149100
     10 O5          -3.2380    -1.8160     0.7610 os         1 NMY      -0.408600
     11 C6          -4.2010    -3.2640    -0.8350 c3         1 NMY       0.153800
     12 C7          -3.9990     4.0250     0.0750 c6         1 NMY       0.114500
     13 N7          -4.4340     5.3750     0.4030 n8         1 NMY      -0.903800
     14 C12         -2.5300     3.9030     0.4690 c6         1 NMY       0.130100
     15 C11         -1.9720     2.5480     0.0520 c6         1 NMY       0.163100
     16 O11         -0.6300     2.3830     0.4510 os         1 NMY      -0.434600
     17 C10         -2.7860     1.4220     0.7090 c6         1 NMY       0.169100
     18 C9          -4.2650     1.5260     0.3070 c6         1 NMY       0.147500
     19 N9          -5.0680     0.5120     0.9700 n8         1 NMY      -0.905800
     20 C8          -4.7990     2.8990     0.7060 c6         1 NMY      -0.112400
     21 C13          0.3940     2.9180    -0.3470 c5         1 NMY       0.313900
     22 C14          1.6830     2.1860     0.0310 c5         1 NMY       0.082100
     23 C15          1.5030     0.9120    -0.7910 c5         1 NMY       0.121100
     24 C16          0.8450     1.4360    -2.0710 c5         1 NMY       0.143100
     25 O16          0.2220     2.6630    -1.7100 os         1 NMY      -0.397600
     26 C17         -0.1520     0.4720    -2.6690 c3         1 NMY       0.121400
     27 C21          5.3170    -2.1820     0.8660 c6         1 NMY       0.099100
     28 C20          5.9180    -0.9590     0.1510 c6         1 NMY       0.107100
     29 C19          4.9120    -0.4130    -0.8650 c6         1 NMY       0.136500
     30 C18          3.5660    -0.1690    -0.1780 c6         1 NMY       0.364900
     31 O18          2.6800     0.2280    -1.1580 os         1 NMY      -0.402600
     32 C22          3.9620    -1.8100     1.4650 c6         1 NMY       0.134100
     33 O22          3.0930    -1.3480     0.4380 os         1 NMY      -0.440600
     34 C23          3.3100    -2.9730     2.1910 c3         1 NMY       0.154800
     35 N6          -5.3930    -2.4360    -0.9490 n8         1 NMY      -0.887800
     36 O14          2.8130     2.8780    -0.4340 oh         1 NMY      -0.578800
     37 O20          6.2180     0.0800     1.0530 oh         1 NMY      -0.596800
     38 O21          5.2250    -3.2800    -0.0060 oh         1 NMY      -0.610800
     39 O17         -0.6040     0.9890    -3.8990 oh         1 NMY      -0.590800
     40 O12         -1.7940     4.9410    -0.1300 oh         1 NMY      -0.596800
     41 N19          2.2180    -2.5230     3.0400 n8         1 NMY      -0.902800
     42 N23          4.7650    -1.4060    -1.9260 n8         1 NMY      -0.903800
     43 H1          -2.6170    -0.5590     2.1810 h2         1 NMY       0.074700
     44 H2          -1.1000    -2.3980     2.0630 h1         1 NMY       0.036700
     45 HN21        -0.2380    -0.0230     2.4230 hn         1 NMY       0.367800
     46 HN22         0.8670    -1.2110     2.1880 hn         1 NMY       0.367800
     47 H3          -0.4590    -1.4790    -0.7630 h1         1 NMY       0.054700
     48 HO3          1.3690    -2.4050     0.1640 ho         1 NMY       0.451000
     49 H4          -1.7900    -3.9980     0.3040 h1         1 NMY       0.048700
     50 HO4         -0.5300    -4.0800    -1.7170 ho         1 NMY       0.427000
     51 H5          -2.8920    -1.6330    -1.2750 h1         1 NMY       0.052700
     52 H61         -3.9780    -3.8400    -1.7410 h1         1 NMY       0.048200
     53 H62         -4.3530    -3.9910    -0.0320 h1         1 NMY       0.048200
     54 H71         -5.2930     5.5990    -0.0820 hn         1 NMY       0.349300
     55 H72         -4.6360     5.4470     1.3940 hn         1 NMY       0.349300
     56 H12         -2.4650     3.9720     1.5700 h1         1 NMY       0.034700
     57 H11         -2.0640     2.4510    -1.0380 h1         1 NMY       0.073700
     58 H10         -2.7270     1.5320     1.8040 h1         1 NMY       0.050700
     59 H9          -4.3120     1.4500    -0.7930 h1         1 NMY       0.026700
     60 H91         -6.0450     0.7080     0.7860 hn         1 NMY       0.362300
     61 H92         -4.8990    -0.4050     0.5700 hn         1 NMY       0.362300
     62 H81         -4.7700     2.9910     1.7990 hc         1 NMY       0.049200
     63 H82         -5.8490     2.9800     0.4110 hc         1 NMY       0.049200
     64 H13          0.4680     4.0030    -0.2180 h2         1 NMY       0.090700
     65 H14          1.7320     1.9880     1.1080 h1         1 NMY       0.068700
     66 H15          0.8240     0.2690    -0.2210 h1         1 NMY       0.115700
     67 H16          1.6220     1.6500    -2.8170 h1         1 NMY       0.085700
     68 H171         0.3470    -0.5000    -2.7960 h1         1 NMY       0.035700
     69 H172        -0.9760     0.3270    -1.9600 h1         1 NMY       0.035700
     70 H21          5.9810    -2.4680     1.6920 h1         1 NMY       0.056700
     71 H20          6.8220    -1.2810    -0.3880 h1         1 NMY       0.051700
     72 H19          5.2670     0.5580    -1.2360 h1         1 NMY       0.065700
     73 H18          3.6980     0.6060     0.5910 h2         1 NMY       0.051700
     74 H22          4.1250    -1.0040     2.1970 h1         1 NMY       0.039700
     75 H231         2.9170    -3.6860     1.4650 h1         1 NMY       0.054200
     76 H232         4.0950    -3.5010     2.7500 h1         1 NMY       0.054200
     77 HN61        -5.3270    -1.8690    -1.7860 hn         1 NMY       0.335800
     78 HN62        -6.2020    -3.0290    -1.0810 hn         1 NMY       0.335800
     79 HO41         2.9740     3.6230     0.1520 ho         1 NMY       0.405000
     80 HO22         6.8350    -0.2560     1.7100 ho         1 NMY       0.409000
     81 HO21         4.8910    -2.9100    -0.8520 ho         1 NMY       0.455000
     82 H17         -1.2910     0.4080    -4.2360 ho         1 NMY       0.400000
     83 HO12        -2.3840     5.7100    -0.0820 ho         1 NMY       0.431000
     84 H191         1.6790    -3.3180     3.3570 hn         1 NMY       0.342300
     85 H192         2.5900    -2.0850     3.8730 hn         1 NMY       0.342300
     86 HN31         3.9920    -1.1650    -2.5330 hn         1 NMY       0.363300
     87 HN32         5.5940    -1.4000    -2.5070 hn         1 NMY       0.363300
     88 H7          -4.0590     3.9300    -1.0160 h1         1 NMY       0.071700
@<TRIPOS>BOND
     1     1     2 1   
     2     1     3 1   
     3     1    10 1   
     4     1    43 1   
     5     2    17 1   
     6     3     4 1   
     7     3     5 1   
     8     3    44 1   
     9     4    45 1   
    10     4    46 1   
    11     5     6 1   
    12     5     7 1   
    13     5    47 1   
    14     6    48 1   
    15     7     8 1   
    16     7     9 1   
    17     7    49 1   
    18     8    50 1   
    19     9    10 1   
    20     9    11 1   
    21     9    51 1   
    22    11    35 1   
    23    11    52 1   
    24    11    53 1   
    25    12    13 1   
    26    12    14 1   
    27    12    20 1   
    28    12    88 1   
    29    13    54 1   
    30    13    55 1   
    31    14    15 1   
    32    14    40 1   
    33    14    56 1   
    34    15    16 1   
    35    15    17 1   
    36    15    57 1   
    37    16    21 1   
    38    17    18 1   
    39    17    58 1   
    40    18    19 1   
    41    18    20 1   
    42    18    59 1   
    43    19    60 1   
    44    19    61 1   
    45    20    62 1   
    46    20    63 1   
    47    21    22 1   
    48    21    25 1   
    49    21    64 1   
    50    22    23 1   
    51    22    36 1   
    52    22    65 1   
    53    23    24 1   
    54    23    31 1   
    55    23    66 1   
    56    24    25 1   
    57    24    26 1   
    58    24    67 1   
    59    26    39 1   
    60    26    68 1   
    61    26    69 1   
    62    27    28 1   
    63    27    32 1   
    64    27    38 1   
    65    27    70 1   
    66    28    29 1   
    67    28    37 1   
    68    28    71 1   
    69    29    30 1   
    70    29    42 1   
    71    29    72 1   
    72    30    31 1   
    73    30    33 1   
    74    30    73 1   
    75    32    33 1   
    76    32    34 1   
    77    32    74 1   
    78    34    41 1   
    79    34    75 1   
    80    34    76 1   
    81    35    77 1   
    82    35    78 1   
    83    36    79 1   
    84    37    80 1   
    85    38    81 1   
    86    39    82 1   
    87    40    83 1   
    88    41    84 1   
    89    41    85 1   
    90    42    86 1   
    91    42    87 1   
@<TRIPOS>SUBSTRUCTURE
     1 NMY         1 TEMP              0 ****  ****    0 ROOT
