@<TRIPOS>MOLECULE
NMY
   88    91     1     0     0
SMALL
No Charge or Current Charge


@<TRIPOS>ATOM
      1 C1          -2.7140    -0.9970     1.0810 c6         1 NMY       0.387300
      2 O1          -2.5140     0.1180     0.1800 os         1 NMY      -0.476000
      3 C2          -1.3660    -1.7190     1.4780 c6         1 NMY       0.120500
      4 N2          -0.3630    -0.8160     2.1400 n8         1 NMY      -1.029200
      5 C3          -0.7740    -2.4430     0.2250 c6         1 NMY       0.144300
      6 O3           0.3820    -3.2500     0.5450 oh         1 NMY      -0.691000
      7 C4          -1.8540    -3.3560    -0.4310 c6         1 NMY       0.144300
      8 O4          -1.2920    -3.9770    -1.6010 oh         1 NMY      -0.727000
      9 C5          -3.1450    -2.5400    -0.7490 c6         1 NMY       0.172300
     10 O5          -3.6410    -1.9140     0.4650 os         1 NMY      -0.455000
     11 C6          -4.2880    -3.4440    -1.3310 c3         1 NMY       0.153800
     12 C7          -3.8120     4.2310     0.4840 c6         1 NMY       0.114500
     13 N7          -4.0770     5.6210     0.9430 n8         1 NMY      -1.014200
     14 C12         -2.2990     3.9260     0.6130 c6         1 NMY       0.153300
     15 C11         -1.9720     2.5280    -0.0210 c6         1 NMY       0.186300
     16 O11         -0.5620     2.1740     0.0160 os         1 NMY      -0.481000
     17 C10         -2.8020     1.4330     0.7300 c6         1 NMY       0.192300
     18 C9          -4.3480     1.7640     0.6750 c6         1 NMY       0.147500
     19 N9          -5.2050     0.7720     1.3690 n8         1 NMY      -1.016200
     20 C8          -4.6510     3.1790     1.2360 c6         1 NMY      -0.112400
     21 C13          0.3670     2.8940    -0.8290 c5         1 NMY       0.360300
     22 C14          1.8010     2.3620    -0.4770 c5         1 NMY       0.105300
     23 C15          1.6360     0.9190    -1.0790 c5         1 NMY       0.144300
     24 C16          0.8470     1.1910    -2.3970 c5         1 NMY       0.166300
     25 O16          0.1710     2.4640    -2.1960 os         1 NMY      -0.444000
     26 C17         -0.1680     0.0720    -2.7650 c3         1 NMY       0.144600
     27 C21          5.4500    -2.0430     1.0180 c6         1 NMY       0.122300
     28 C20          6.1240    -0.7870     0.3780 c6         1 NMY       0.130300
     29 C19          5.2420    -0.3000    -0.8180 c6         1 NMY       0.136500
     30 C18          3.7820    -0.0080    -0.2950 c6         1 NMY       0.411300
     31 O18          2.9360     0.3500    -1.4030 os         1 NMY      -0.449000
     32 C22          3.9960    -1.6610     1.4680 c6         1 NMY       0.157300
     33 O22          3.2250    -1.1890     0.3300 os         1 NMY      -0.487000
     34 C23          3.2450    -2.8770     2.1080 c3         1 NMY       0.154800
     35 N6          -5.5560    -2.7420    -1.6880 n8         1 NMY      -0.998200
     36 O14          2.8550     3.1420    -1.0970 oh         1 NMY      -0.701000
     37 O20          6.3020     0.2670     1.3420 oh         1 NMY      -0.659000
     38 O21          5.4240    -3.0810     0.0210 oh         1 NMY      -0.733000
     39 O17         -0.6710     0.2350    -4.1060 oh         1 NMY      -0.713000
     40 O12         -1.6480     5.0610     0.0410 oh         1 NMY      -0.719000
     41 N19          1.9430    -2.5530     2.7620 n8         1 NMY      -1.013200
     42 N23          5.2700    -1.2970    -1.9570 n8         1 NMY      -1.014200
     43 H1          -3.1670    -0.6360     2.0160 h2         1 NMY       0.074700
     44 H2          -1.6170    -2.4920     2.2200 h1         1 NMY       0.036700
     45 HN21        -0.7160    -0.5270     3.0590 hn         1 NMY       0.423000
     46 HN22         0.4840    -1.3560     2.3730 hn         1 NMY       0.423000
     47 H3          -0.4910    -1.6670    -0.5010 h1         1 NMY       0.054700
     48 HO3          0.9190    -2.7690     1.2340 ho         1 NMY       0.490000
     49 H4          -2.1250    -4.1340     0.3000 h1         1 NMY       0.048700
     50 HO4         -0.3590    -4.1750    -1.3370 ho         1 NMY       0.526000
     51 H5          -2.9120    -1.7600    -1.4890 h1         1 NMY       0.052700
     52 H61         -3.9080    -3.9380    -2.2360 h1         1 NMY       0.048200
     53 H62         -4.5180    -4.2290    -0.5970 h1         1 NMY       0.048200
     54 H71         -5.0430     5.8760     0.6940 hn         1 NMY       0.404500
     55 H72         -4.1000     5.6350     1.9720 hn         1 NMY       0.404500
     56 H12         -2.0500     3.8760     1.6840 h1         1 NMY       0.034700
     57 H11         -2.2960     2.5340    -1.0730 h1         1 NMY       0.073700
     58 H10         -2.4770     1.4470     1.7820 h1         1 NMY       0.050700
     59 H9          -4.6520     1.7440    -0.3820 h1         1 NMY       0.026700
     60 H91         -6.1870     0.9620     1.1380 hn         1 NMY       0.417500
     61 H92         -5.0350    -0.1460     0.9340 hn         1 NMY       0.417500
     62 H81         -4.4280     3.2140     2.3120 hc         1 NMY       0.049200
     63 H82         -5.7200     3.4060     1.1230 hc         1 NMY       0.049200
     64 H13          0.2880     3.9810    -0.7180 h2         1 NMY       0.090700
     65 H14          1.9430     2.3180     0.6120 h1         1 NMY       0.068700
     66 H15          1.0830     0.2510    -0.4030 h1         1 NMY       0.115700
     67 H16          1.5490     1.3100    -3.2330 h1         1 NMY       0.085700
     68 H171         0.3400    -0.8980    -2.6740 h1         1 NMY       0.035700
     69 H172        -0.9910     0.0850    -2.0390 h1         1 NMY       0.035700
     70 H21          6.0300    -2.3670     1.8950 h1         1 NMY       0.056700
     71 H20          7.1090    -1.0800    -0.0180 h1         1 NMY       0.051700
     72 H19          5.6480     0.6490    -1.2020 h1         1 NMY       0.065700
     73 H18          3.8200     0.8170     0.4330 h2         1 NMY       0.051700
     74 H22          4.0470    -0.8610     2.2210 h1         1 NMY       0.039700
     75 H231         3.0750    -3.6370     1.3340 h1         1 NMY       0.054200
     76 H232         3.9040    -3.3210     2.8680 h1         1 NMY       0.054200
     77 HN61        -5.3630    -2.0530    -2.4240 hn         1 NMY       0.391000
     78 HN62        -6.1940    -3.4090    -2.1390 hn         1 NMY       0.391000
     79 HO41         2.8710     4.0260    -0.6610 ho         1 NMY       0.504000
     80 HO22         7.0960     0.0420     1.8770 ho         1 NMY       0.448000
     81 HO21         5.2950    -2.5540    -0.8310 ho         1 NMY       0.554000
     82 H17         -1.3170    -0.4920    -4.2660 ho         1 NMY       0.499000
     83 HO12        -2.3540     5.7480     0.2010 ho         1 NMY       0.530000
     84 H191         1.6150    -3.4000     3.2480 hn         1 NMY       0.397500
     85 H192         2.1420    -1.9170     3.5460 hn         1 NMY       0.397500
     86 HN31         4.4230    -1.1260    -2.5190 hn         1 NMY       0.418500
     87 HN32         6.0220    -1.0310    -2.6090 hn         1 NMY       0.418500
     88 H7          -4.0780     4.1890    -0.5860 h1         1 NMY       0.071700
@<TRIPOS>BOND
     1     1     2 1   
     2     1     3 1   
     3     1    10 1   
     4     1    43 1   
     5     2    17 1   
     6     3     4 1   
     7     3     5 1   
     8     3    44 1   
     9     4    45 1   
    10     4    46 1   
    11     5     6 1   
    12     5     7 1   
    13     5    47 1   
    14     6    48 1   
    15     7     8 1   
    16     7     9 1   
    17     7    49 1   
    18     8    50 1   
    19     9    10 1   
    20     9    11 1   
    21     9    51 1   
    22    11    35 1   
    23    11    52 1   
    24    11    53 1   
    25    12    13 1   
    26    12    14 1   
    27    12    20 1   
    28    12    88 1   
    29    13    54 1   
    30    13    55 1   
    31    14    15 1   
    32    14    40 1   
    33    14    56 1   
    34    15    16 1   
    35    15    17 1   
    36    15    57 1   
    37    16    21 1   
    38    17    18 1   
    39    17    58 1   
    40    18    19 1   
    41    18    20 1   
    42    18    59 1   
    43    19    60 1   
    44    19    61 1   
    45    20    62 1   
    46    20    63 1   
    47    21    22 1   
    48    21    25 1   
    49    21    64 1   
    50    22    23 1   
    51    22    36 1   
    52    22    65 1   
    53    23    24 1   
    54    23    31 1   
    55    23    66 1   
    56    24    25 1   
    57    24    26 1   
    58    24    67 1   
    59    26    39 1   
    60    26    68 1   
    61    26    69 1   
    62    27    28 1   
    63    27    32 1   
    64    27    38 1   
    65    27    70 1   
    66    28    29 1   
    67    28    37 1   
    68    28    71 1   
    69    29    30 1   
    70    29    42 1   
    71    29    72 1   
    72    30    31 1   
    73    30    33 1   
    74    30    73 1   
    75    32    33 1   
    76    32    34 1   
    77    32    74 1   
    78    34    41 1   
    79    34    75 1   
    80    34    76 1   
    81    35    77 1   
    82    35    78 1   
    83    36    79 1   
    84    37    80 1   
    85    38    81 1   
    86    39    82 1   
    87    40    83 1   
    88    41    84 1   
    89    41    85 1   
    90    42    86 1   
    91    42    87 1   
@<TRIPOS>SUBSTRUCTURE
     1 NMY         1 TEMP              0 ****  ****    0 ROOT
