@<TRIPOS>MOLECULE
NMZ
  101   104     1     0     0
SMALL
abcg2


@<TRIPOS>ATOM
      1 C4          -1.0930    -5.4030    -1.6280 c6         1 NMZ       0.172300
      2 C5          -2.3740    -4.6150    -1.8480 c6         1 NMZ       0.143300
      3 C6          -3.3310    -5.2760    -2.8250 c3         1 NMZ       0.154800
      4 C3          -0.2490    -4.7550    -0.5450 c6         1 NMZ       0.116300
      5 C2          -1.0940    -4.5770     0.7260 c6         1 NMZ       0.109500
      6 C1          -2.3400    -3.7680     0.3690 c6         1 NMZ       0.397300
      7 O1          -1.9370    -2.4970    -0.0560 os         1 NMZ      -0.497000
      8 C10         -2.5570    -1.3460     0.4590 c6         1 NMZ       0.191300
      9 C11         -1.4950    -0.2440     0.3980 c6         1 NMZ       0.187300
     10 C12         -2.0240     1.0660     0.9670 c6         1 NMZ       0.141300
     11 C13          0.8880    -0.4780     0.5300 c5         1 NMZ       0.364300
     12 C14          1.8710     0.1850     1.4900 c5         1 NMZ       0.112300
     13 C15          3.2070    -0.3080     0.9430 c5         1 NMZ       0.146300
     14 C16          2.8520    -1.7390     0.5250 c5         1 NMZ       0.160300
     15 C17          3.1920    -2.7500     1.6010 c3         1 NMZ       0.149600
     16 C18          4.4210     1.4940    -0.0050 c6         1 NMZ       0.400300
     17 C19          4.1270     2.5710    -1.0460 c6         1 NMZ       0.136500
     18 C20          5.1650     3.6920    -0.9150 c6         1 NMZ       0.131300
     19 C21          6.5870     3.0960    -0.9670 c6         1 NMZ       0.123300
     20 C22          6.7190     1.9960     0.0860 c6         1 NMZ       0.153300
     21 C23          8.0700     1.3100     0.0760 c3         1 NMZ       0.158800
     22 C24         -6.2550     4.5790     0.9690 c3         1 NMZ      -0.110400
     23 C26         -4.1030     3.8020    -0.0250 c          1 NMZ       0.567100
     24 C27         -7.0300     5.6810     1.6770 c3         1 NMZ       0.152800
     25 C28         -4.7920     4.9520     0.7090 c3         1 NMZ       0.095300
     26 C7          -3.2750     1.4920     0.2000 c6         1 NMZ       0.068700
     27 C8          -4.3260     0.3910     0.2360 c6         1 NMZ      -0.100400
     28 C9          -3.7900    -0.9150    -0.3410 c6         1 NMZ       0.144500
     29 F99         -1.4090    -6.7110    -1.2470 f          1 NMZ      -0.257000
     30 N19          8.1710     0.3550     1.1710 n8         1 NMZ      -0.999200
     31 N2          -0.4310    -3.9630     1.8570 n8         1 NMZ      -1.002200
     32 N23          4.2270     2.0200    -2.3950 n8         1 NMZ      -1.010200
     33 N3          -8.3710     5.2190     2.0100 n8         1 NMZ      -0.999200
     34 N6          -4.4500    -4.3940    -3.1070 n8         1 NMZ      -0.994200
     35 N7          -3.7820     2.7400     0.7320 ns         1 NMZ      -0.505900
     36 N9          -4.8320    -1.9260    -0.2780 n8         1 NMZ      -1.008200
     37 O11         -0.3530    -0.6420     1.1230 os         1 NMZ      -0.450000
     38 O12         -1.0040     2.0340     0.8570 oh         1 NMZ      -0.731000
     39 O14          1.7770     1.5720     1.5500 oh         1 NMZ      -0.715000
     40 O16          1.4540    -1.7360     0.2430 os         1 NMZ      -0.466000
     41 O17          2.9200    -4.0540     1.1270 oh         1 NMZ      -0.730000
     42 O18          3.5670     0.4220    -0.2090 os         1 NMZ      -0.447000
     43 O19         -4.6480     6.1360    -0.0230 oh         1 NMZ      -0.642000
     44 O22          5.7290     1.0010    -0.1290 os         1 NMZ      -0.486000
     45 O23          0.9020    -5.5300    -0.3260 oh         1 NMZ      -0.662000
     46 O24          6.8810     2.6390    -2.2630 oh         1 NMZ      -0.733000
     47 O25          4.9160     4.3560     0.3000 oh         1 NMZ      -0.657000
     48 O5          -3.0710    -4.4150    -0.6310 os         1 NMZ      -0.441000
     49 H1          -0.5350    -5.4640    -2.5670 h1         1 NMZ       0.063700
     50 H2          -2.0720    -3.6520    -2.2820 h1         1 NMZ       0.046700
     51 H3          -2.7560    -5.5630    -3.7160 h1         1 NMZ       0.046700
     52 H4          -3.7160    -6.2020    -2.3910 h1         1 NMZ       0.046700
     53 H5           0.0260    -3.7620    -0.9210 h1         1 NMZ       0.060700
     54 H6          -1.4430    -5.5620     1.0520 h1         1 NMZ       0.088700
     55 H7          -3.0030    -3.6990     1.2390 h2         1 NMZ       0.098700
     56 H8          -2.8620    -1.5130     1.5030 h1         1 NMZ       0.066700
     57 H9          -1.2330    -0.0830    -0.6580 h1         1 NMZ       0.062700
     58 H10         -2.2910     0.9070     2.0230 h1         1 NMZ       0.048700
     59 H11          0.7940     0.1100    -0.3960 h2         1 NMZ       0.061700
     60 H12          1.7220    -0.2710     2.4820 h1         1 NMZ       0.058700
     61 H13          4.0100    -0.2860     1.6880 h1         1 NMZ       0.078700
     62 H14          3.3990    -2.0040    -0.3870 h1         1 NMZ       0.097700
     63 H15          4.2580    -2.6430     1.8370 h1         1 NMZ       0.033200
     64 H16          2.6320    -2.5310     2.5190 h1         1 NMZ       0.033200
     65 H17          4.2820     1.9280     0.9960 h2         1 NMZ       0.064700
     66 H18          3.1310     2.9750    -0.8220 h1         1 NMZ       0.062700
     67 H19          5.0480     4.3770    -1.7680 h1         1 NMZ       0.049700
     68 H20          7.3080     3.8870    -0.7240 h1         1 NMZ       0.061700
     69 H21          6.5790     2.4500     1.0800 h1         1 NMZ       0.055700
     70 H22          8.2470     0.8710    -0.9130 h1         1 NMZ       0.045700
     71 H23          8.8330     2.0800     0.2180 h1         1 NMZ       0.045700
     72 H25         -6.7450     4.3310     0.0200 hc         1 NMZ       0.054700
     73 H26         -6.5160     5.9360     2.6080 h1         1 NMZ       0.037700
     74 H27         -7.0230     6.5870     1.0600 h1         1 NMZ       0.037700
     75 H28         -4.2980     5.1120     1.6730 h1         1 NMZ       0.076700
     76 H29         -2.9900     1.6820    -0.8370 h1         1 NMZ       0.097700
     77 H30         -4.6640     0.2230     1.2650 hc         1 NMZ       0.059700
     78 H31         -5.1990     0.7120    -0.3370 hc         1 NMZ       0.059700
     79 H32         -3.4580    -0.7180    -1.3740 h1         1 NMZ       0.025700
     80 H33          7.5360    -0.4140     0.9990 hn         1 NMZ       0.396000
     81 H34          9.0960    -0.0540     1.1700 hn         1 NMZ       0.396000
     82 H36          0.3090    -4.5650     2.1930 hn         1 NMZ       0.410000
     83 H37          0.0080    -3.0970     1.5730 hn         1 NMZ       0.410000
     84 H39          3.6490     1.1930    -2.4840 hn         1 NMZ       0.415000
     85 H40          3.8590     2.6920    -3.0570 hn         1 NMZ       0.415000
     86 H42         -8.8610     5.9540     2.5050 hn         1 NMZ       0.394500
     87 H43         -8.8960     5.0750     1.1560 hn         1 NMZ       0.394500
     88 H45         -4.1330    -3.6100    -3.6640 hn         1 NMZ       0.392500
     89 H46         -5.1280    -4.8820    -3.6780 hn         1 NMZ       0.392500
     90 H48         -4.0380     2.7590     1.7080 hn         1 NMZ       0.314500
     91 H49         -5.6670    -1.5600    -0.7210 hn         1 NMZ       0.418000
     92 H50         -4.5720    -2.7380    -0.8280 hn         1 NMZ       0.418000
     93 H52         -1.3110     2.8500     1.2670 ho         1 NMZ       0.521000
     94 H53          0.8450     1.8200     1.4390 ho         1 NMZ       0.539000
     95 H54          3.1580    -4.6800     1.8190 ho         1 NMZ       0.514000
     96 H55         -4.7450     5.9150    -0.9580 ho         1 NMZ       0.468000
     97 H56          1.5560    -4.9700     0.1190 ho         1 NMZ       0.469000
     98 H57          6.0710     2.1740    -2.5650 ho         1 NMZ       0.551000
     99 H58          5.5570     5.0670     0.3980 ho         1 NMZ       0.451000
    100 H24         -6.2920     3.6780     1.5870 hc         1 NMZ       0.054700
    101 O2          -3.9040     3.8700    -1.2290 o          1 NMZ      -0.598100
@<TRIPOS>BOND
     1     1     2 1   
     2     1     4 1   
     3     1    29 1   
     4     1    49 1   
     5     2     3 1   
     6     2    48 1   
     7     2    50 1   
     8     3    34 1   
     9     3    51 1   
    10     3    52 1   
    11     4     5 1   
    12     4    45 1   
    13     4    53 1   
    14     5     6 1   
    15     5    31 1   
    16     5    54 1   
    17     6     7 1   
    18     6    48 1   
    19     6    55 1   
    20     7     8 1   
    21     8     9 1   
    22     8    28 1   
    23     8    56 1   
    24     9    10 1   
    25     9    37 1   
    26     9    57 1   
    27    10    26 1   
    28    10    38 1   
    29    10    58 1   
    30    11    12 1   
    31    11    37 1   
    32    11    40 1   
    33    11    59 1   
    34    12    13 1   
    35    12    39 1   
    36    12    60 1   
    37    13    14 1   
    38    13    42 1   
    39    13    61 1   
    40    14    15 1   
    41    14    40 1   
    42    14    62 1   
    43    15    41 1   
    44    15    63 1   
    45    15    64 1   
    46    16    17 1   
    47    16    42 1   
    48    16    44 1   
    49    16    65 1   
    50    17    18 1   
    51    17    32 1   
    52    17    66 1   
    53    18    19 1   
    54    18    47 1   
    55    18    67 1   
    56    19    20 1   
    57    19    46 1   
    58    19    68 1   
    59    20    21 1   
    60    20    44 1   
    61    20    69 1   
    62    21    30 1   
    63    21    70 1   
    64    21    71 1   
    65    22    24 1   
    66    22    25 1   
    67    22    72 1   
    68    22   100 1   
    69    23    25 1   
    70    23    35 1   
    71    23   101 2   
    72    24    33 1   
    73    24    73 1   
    74    24    74 1   
    75    25    43 1   
    76    25    75 1   
    77    26    27 1   
    78    26    35 1   
    79    26    76 1   
    80    27    28 1   
    81    27    77 1   
    82    27    78 1   
    83    28    36 1   
    84    28    79 1   
    85    30    80 1   
    86    30    81 1   
    87    31    82 1   
    88    31    83 1   
    89    32    84 1   
    90    32    85 1   
    91    33    86 1   
    92    33    87 1   
    93    34    88 1   
    94    34    89 1   
    95    35    90 1   
    96    36    91 1   
    97    36    92 1   
    98    38    93 1   
    99    39    94 1   
   100    41    95 1   
   101    43    96 1   
   102    45    97 1   
   103    46    98 1   
   104    47    99 1   
@<TRIPOS>SUBSTRUCTURE
     1 NMZ         1 TEMP              0 ****  ****    0 ROOT
