@<TRIPOS>MOLECULE
NMZ
  101   104     1     0     0
SMALL
No Charge or Current Charge


@<TRIPOS>ATOM
      1 C4          -0.5190    -5.3740    -1.3700 c6         1 NMZ       0.172300
      2 C5          -1.5020    -4.5460    -2.2530 c6         1 NMZ       0.143300
      3 C6          -1.8650    -5.2860    -3.5860 c3         1 NMZ       0.154800
      4 C3          -0.2430    -4.6290    -0.0280 c6         1 NMZ       0.116300
      5 C2          -1.5950    -4.3000     0.6910 c6         1 NMZ       0.109500
      6 C1          -2.5550    -3.5280    -0.2990 c6         1 NMZ       0.397300
      7 O1          -2.0630    -2.2040    -0.6140 os         1 NMZ      -0.497000
      8 C10         -2.6410    -1.1160     0.1600 c6         1 NMZ       0.191300
      9 C11         -1.5320    -0.1030     0.5510 c6         1 NMZ       0.187300
     10 C12         -2.1060     1.1250     1.3230 c6         1 NMZ       0.141300
     11 C13          0.7640    -0.9140     0.7740 c5         1 NMZ       0.364300
     12 C14          1.7100     0.1430     1.4050 c5         1 NMZ       0.112300
     13 C15          3.0900    -0.5060     0.9980 c5         1 NMZ       0.146300
     14 C16          2.7420    -2.0450     0.9840 c5         1 NMZ       0.160300
     15 C17          3.5090    -2.9300     1.9960 c3         1 NMZ       0.149600
     16 C18          4.1150     1.0800    -0.5960 c6         1 NMZ       0.400300
     17 C19          4.1440     1.4150    -2.1370 c6         1 NMZ       0.136500
     18 C20          4.9870     2.7150    -2.3630 c6         1 NMZ       0.131300
     19 C21          6.4150     2.5000    -1.7630 c6         1 NMZ       0.123300
     20 C22          6.2690     2.1340    -0.2450 c6         1 NMZ       0.153300
     21 C23          7.6510     1.8890     0.4480 c3         1 NMZ       0.158800
     22 C24         -6.5630     5.0130     1.6850 c3         1 NMZ      -0.110400
     23 C26         -4.3890     4.0730     0.6980 c          1 NMZ       0.567100
     24 C27         -7.2340     5.8510     2.7930 c3         1 NMZ       0.152800
     25 C28         -5.0160     5.0950     1.6990 c3         1 NMZ       0.095300
     26 C7          -3.2450     1.8150     0.5130 c6         1 NMZ       0.068700
     27 C8          -4.3580     0.7900     0.1660 c6         1 NMZ      -0.100400
     28 C9          -3.7970    -0.4140    -0.6290 c6         1 NMZ       0.144500
     29 F99         -1.0950    -6.6390    -1.0940 f          1 NMZ      -0.257000
     30 N19          7.5670     1.5990     1.9050 n8         1 NMZ      -0.999200
     31 N2          -1.3540    -3.6010     1.9980 n8         1 NMZ      -1.002200
     32 N23          4.6750     0.2720    -2.9730 n8         1 NMZ      -1.010200
     33 N3          -8.7000     5.6910     2.7670 n8         1 NMZ      -0.999200
     34 N6          -2.6960    -4.5070    -4.5470 n8         1 NMZ      -0.994200
     35 N7          -3.8290     2.9440     1.2650 ns         1 NMZ      -0.505900
     36 N9          -4.8980    -1.3440    -0.9810 n8         1 NMZ      -1.008200
     37 O11         -0.5420    -0.7880     1.3520 os         1 NMZ      -0.450000
     38 O12         -1.0580     2.0750     1.6210 oh         1 NMZ      -0.731000
     39 O14          1.4830     1.5060     0.9890 oh         1 NMZ      -0.715000
     40 O16          1.3280    -2.1190     1.2720 os         1 NMZ      -0.466000
     41 O17          3.1610    -4.3180     1.8140 oh         1 NMZ      -0.730000
     42 O18          3.4230    -0.1680    -0.3800 os         1 NMZ      -0.447000
     43 O19         -4.6060     6.4520     1.4020 oh         1 NMZ      -0.642000
     44 O22          5.4650     0.9320    -0.0950 os         1 NMZ      -0.486000
     45 O23          0.6450    -5.3790     0.8380 oh         1 NMZ      -0.662000
     46 O24          7.0380     1.4270    -2.4930 oh         1 NMZ      -0.733000
     47 O25          4.3340     3.8550    -1.7750 oh         1 NMZ      -0.657000
     48 O5          -2.7320    -4.2630    -1.5290 os         1 NMZ      -0.441000
     49 H1           0.4220    -5.5460    -1.9090 h1         1 NMZ       0.063700
     50 H2          -1.0190    -3.5940    -2.5170 h1         1 NMZ       0.046700
     51 H3          -0.9270    -5.5600    -4.0910 h1         1 NMZ       0.046700
     52 H4          -2.3950    -6.2170    -3.3420 h1         1 NMZ       0.046700
     53 H5           0.2340    -3.6770    -0.2990 h1         1 NMZ       0.060700
     54 H6          -2.0860    -5.2570     0.9300 h1         1 NMZ       0.088700
     55 H7          -3.5410    -3.4450     0.1850 h2         1 NMZ       0.098700
     56 H8          -3.0560    -1.5170     1.0970 h1         1 NMZ       0.066700
     57 H9          -1.0680     0.2680    -0.3760 h1         1 NMZ       0.062700
     58 H10         -2.5380     0.7520     2.2640 h1         1 NMZ       0.048700
     59 H11          0.7520    -0.9040    -0.3250 h2         1 NMZ       0.061700
     60 H12          1.6070     0.0880     2.4980 h1         1 NMZ       0.058700
     61 H13          3.9170    -0.2560     1.6760 h1         1 NMZ       0.078700
     62 H14          2.9150    -2.4580    -0.0200 h1         1 NMZ       0.097700
     63 H15          4.5860    -2.7850     1.8400 h1         1 NMZ       0.033200
     64 H16          3.2700    -2.5990     3.0160 h1         1 NMZ       0.033200
     65 H17          3.6130     1.8990    -0.0620 h2         1 NMZ       0.064700
     66 H18          3.1060     1.5990    -2.4540 h1         1 NMZ       0.062700
     67 H19          5.0830     2.8790    -3.4480 h1         1 NMZ       0.049700
     68 H20          7.0020     3.4260    -1.8610 h1         1 NMZ       0.061700
     69 H21          5.7730     2.9620     0.2830 h1         1 NMZ       0.055700
     70 H22          8.1430     1.0400    -0.0460 h1         1 NMZ       0.045700
     71 H23          8.2840     2.7760     0.3030 h1         1 NMZ       0.045700
     72 H25         -6.9380     5.3300     0.7030 hc         1 NMZ       0.054700
     73 H26         -6.8610     5.5310     3.7760 h1         1 NMZ       0.037700
     74 H27         -6.9920     6.9150     2.6590 h1         1 NMZ       0.037700
     75 H28         -4.6700     4.8170     2.7030 h1         1 NMZ       0.076700
     76 H29         -2.8170     2.2010    -0.4260 h1         1 NMZ       0.097700
     77 H30         -4.8400     0.4370     1.0890 hc         1 NMZ       0.059700
     78 H31         -5.1410     1.2880    -0.4220 hc         1 NMZ       0.059700
     79 H32         -3.3860    -0.0410    -1.5780 h1         1 NMZ       0.025700
     80 H33          6.9560     0.7830     2.0250 hn         1 NMZ       0.396000
     81 H34          8.4830     1.2700     2.2340 hn         1 NMZ       0.396000
     82 H36         -0.5970    -4.1060     2.4730 hn         1 NMZ       0.410000
     83 H37         -0.9070    -2.6930     1.7850 hn         1 NMZ       0.410000
     84 H39          4.3540    -0.5980    -2.5230 hn         1 NMZ       0.415000
     85 H40          4.1680     0.2560    -3.8700 hn         1 NMZ       0.415000
     86 H42         -9.1170     6.3040     3.4800 hn         1 NMZ       0.394500
     87 H43         -9.0620     6.0720     1.8840 hn         1 NMZ       0.394500
     88 H45         -2.1820    -3.6660    -4.8360 hn         1 NMZ       0.392500
     89 H46         -2.7960    -5.0430    -5.4180 hn         1 NMZ       0.392500
     90 H48         -3.9340     2.8470     2.2700 hn         1 NMZ       0.314500
     91 H49         -5.5510    -0.8640    -1.6110 hn         1 NMZ       0.418000
     92 H50         -4.5060    -2.0870    -1.5730 hn         1 NMZ       0.418000
     93 H52         -1.5100     2.8890     1.9510 ho         1 NMZ       0.521000
     94 H53          0.5330     1.7170     1.2420 ho         1 NMZ       0.539000
     95 H54          3.7250    -4.8380     2.4360 ho         1 NMZ       0.514000
     96 H55         -4.6160     6.5440     0.4210 ho         1 NMZ       0.468000
     97 H56          1.4020    -4.7860     1.0860 ho         1 NMZ       0.469000
     98 H57          6.2510     0.8300    -2.7040 ho         1 NMZ       0.551000
     99 H58          4.6920     4.6570    -2.2180 ho         1 NMZ       0.451000
    100 H24         -6.8580     3.9640     1.8120 hc         1 NMZ       0.054700
    101 O2          -4.3520     4.2750    -0.5090 o          1 NMZ      -0.598100
@<TRIPOS>BOND
     1     1     2 1   
     2     1     4 1   
     3     1    29 1   
     4     1    49 1   
     5     2     3 1   
     6     2    48 1   
     7     2    50 1   
     8     3    34 1   
     9     3    51 1   
    10     3    52 1   
    11     4     5 1   
    12     4    45 1   
    13     4    53 1   
    14     5     6 1   
    15     5    31 1   
    16     5    54 1   
    17     6     7 1   
    18     6    48 1   
    19     6    55 1   
    20     7     8 1   
    21     8     9 1   
    22     8    28 1   
    23     8    56 1   
    24     9    10 1   
    25     9    37 1   
    26     9    57 1   
    27    10    26 1   
    28    10    38 1   
    29    10    58 1   
    30    11    12 1   
    31    11    37 1   
    32    11    40 1   
    33    11    59 1   
    34    12    13 1   
    35    12    39 1   
    36    12    60 1   
    37    13    14 1   
    38    13    42 1   
    39    13    61 1   
    40    14    15 1   
    41    14    40 1   
    42    14    62 1   
    43    15    41 1   
    44    15    63 1   
    45    15    64 1   
    46    16    17 1   
    47    16    42 1   
    48    16    44 1   
    49    16    65 1   
    50    17    18 1   
    51    17    32 1   
    52    17    66 1   
    53    18    19 1   
    54    18    47 1   
    55    18    67 1   
    56    19    20 1   
    57    19    46 1   
    58    19    68 1   
    59    20    21 1   
    60    20    44 1   
    61    20    69 1   
    62    21    30 1   
    63    21    70 1   
    64    21    71 1   
    65    22    24 1   
    66    22    25 1   
    67    22    72 1   
    68    22   100 1   
    69    23    25 1   
    70    23    35 1   
    71    23   101 2   
    72    24    33 1   
    73    24    73 1   
    74    24    74 1   
    75    25    43 1   
    76    25    75 1   
    77    26    27 1   
    78    26    35 1   
    79    26    76 1   
    80    27    28 1   
    81    27    77 1   
    82    27    78 1   
    83    28    36 1   
    84    28    79 1   
    85    30    80 1   
    86    30    81 1   
    87    31    82 1   
    88    31    83 1   
    89    32    84 1   
    90    32    85 1   
    91    33    86 1   
    92    33    87 1   
    93    34    88 1   
    94    34    89 1   
    95    35    90 1   
    96    36    91 1   
    97    36    92 1   
    98    38    93 1   
    99    39    94 1   
   100    41    95 1   
   101    43    96 1   
   102    45    97 1   
   103    46    98 1   
   104    47    99 1   
@<TRIPOS>SUBSTRUCTURE
     1 NMZ         1 TEMP              0 ****  ****    0 ROOT
