@<TRIPOS>MOLECULE
NN0
   48    51     1     0     0
SMALL
abcg2


@<TRIPOS>ATOM
      1 C10          1.1180    -2.3530    85.3440 ca         1 NN0      -0.132000
      2 C13         -1.1900    -3.8300    84.8510 ca         1 NN0      -0.005000
      3 C20         -3.6150    -1.1060    88.1770 c5         1 NN0       0.101700
      4 C24         -5.7570    -2.2600    88.5500 c5         1 NN0      -0.077400
      5 C26         -4.7150    -0.4930    87.2870 c5         1 NN0      -0.083400
      6 C1           4.4180    -4.8380    83.0680 ce         1 NN0       0.330100
      7 C2           5.3860    -5.8900    83.2500 ce         1 NN0      -0.251000
      8 C3           5.2450    -6.7680    84.2490 c2         1 NN0      -0.105200
      9 C4           4.1150    -6.7090    85.2060 c6         1 NN0      -0.177200
     10 C5           3.1150    -5.5820    85.0320 c          1 NN0       0.613300
     11 C6           3.2990    -4.6730    83.9050 cf         1 NN0      -0.475400
     12 C9           1.1350    -3.3810    84.4180 ca         1 NN0      -0.042600
     13 C11         -0.0510    -2.0630    86.0580 ca         1 NN0       0.125600
     14 C12         -1.2070    -2.8050    85.7960 ca         1 NN0      -0.201600
     15 C14         -0.0260    -4.1180    84.1740 ca         1 NN0       0.109000
     16 C16         -1.2290    -0.7420    87.7190 c          1 NN0       0.624000
     17 C18         -2.4520    -2.5030    86.5020 c          1 NN0       0.590600
     18 C23         -4.2770    -2.2650    88.9720 c5         1 NN0      -0.083400
     19 C25         -6.0050    -0.8330    88.0390 c5         1 NN0      -0.077400
     20 N15         -0.0870    -1.0590    87.0110 n          1 NN0      -0.303000
     21 N17         -2.3870    -1.4790    87.4360 n          1 NN0      -0.365400
     22 O21         -3.4950    -3.1060    86.2920 o          1 NN0      -0.523000
     23 O28          2.1970    -5.4800    85.8380 o          1 NN0      -0.542100
     24 O29         -1.2340     0.1470    88.5580 o          1 NN0      -0.557000
     25 CL1         -0.0040    -5.4160    83.0070 cl         1 NN0      -0.191000
     26 H1           2.0240    -1.7920    85.5110 ha         1 NN0       0.131000
     27 H2          -2.0960    -4.3870    84.6650 ha         1 NN0       0.156000
     28 H3          -3.2810    -0.3530    88.8780 h1         1 NN0       0.084700
     29 H4          -6.4240    -2.5370    89.3680 hc         1 NN0       0.047200
     30 H5          -5.9120    -2.9690    87.7360 hc         1 NN0       0.047200
     31 H6          -4.5620     0.5780    87.1480 hc         1 NN0       0.053950
     32 H7          -4.7190    -0.9680    86.3080 hc         1 NN0       0.053950
     33 H8           6.2090    -5.9310    82.5500 ha         1 NN0       0.212000
     34 H9           5.9700    -7.5620    84.3830 ha         1 NN0       0.193000
     35 H10          3.5550    -7.6520    85.1670 hc         1 NN0       0.097200
     36 H12          0.9050     0.4210    88.0750 h1         1 NN0       0.060033
     37 H13          1.9210    -0.9620    87.6240 h1         1 NN0       0.060033
     38 H14          1.4510     0.2380    86.3970 h1         1 NN0       0.060033
     39 H15         -3.7960    -3.2210    88.7810 hc         1 NN0       0.053950
     40 H16         -4.1800    -2.0560    90.0390 hc         1 NN0       0.053950
     41 H17         -6.1360    -0.1510    88.8850 hc         1 NN0       0.047200
     42 H18         -6.8920    -0.7530    87.4090 hc         1 NN0       0.047200
     43 H19          3.8900    -3.3530    82.0600 ho         1 NN0       0.546000
     44 H20          4.4980    -6.6600    86.2310 hc         1 NN0       0.097200
     45 C8           2.3820    -3.6030    83.6130 c          1 NN0       0.630900
     46 C19          1.1280    -0.2920    87.2930 c3         1 NN0       0.085300
     47 O7           4.6430    -4.0340    82.0590 oh         1 NN0      -0.531100
     48 O27          2.5750    -2.8020    82.6760 o          1 NN0      -0.589100
@<TRIPOS>BOND
     1     1    12 ar  
     2     1    13 ar  
     3     1    26 1   
     4     2    14 ar  
     5     2    15 ar  
     6     2    27 1   
     7     3     5 1   
     8     3    18 1   
     9     3    21 1   
    10     3    28 1   
    11     4    18 1   
    12     4    19 1   
    13     4    29 1   
    14     4    30 1   
    15     5    19 1   
    16     5    31 1   
    17     5    32 1   
    18     6     7 1   
    19     6    11 2   
    20     6    47 1   
    21     7     8 2   
    22     7    33 1   
    23     8     9 1   
    24     8    34 1   
    25     9    10 1   
    26     9    35 1   
    27     9    44 1   
    28    10    11 1   
    29    10    23 2   
    30    11    45 1   
    31    12    15 ar  
    32    12    45 1   
    33    13    14 ar  
    34    13    20 1   
    35    14    17 1   
    36    15    25 1   
    37    16    20 1   
    38    16    21 1   
    39    16    24 2   
    40    17    21 1   
    41    17    22 2   
    42    18    39 1   
    43    18    40 1   
    44    19    41 1   
    45    19    42 1   
    46    20    46 1   
    47    36    46 1   
    48    37    46 1   
    49    38    46 1   
    50    43    47 1   
    51    45    48 2   
@<TRIPOS>SUBSTRUCTURE
     1 NN0         1 TEMP              0 ****  ****    0 ROOT
