@<TRIPOS>MOLECULE
NN0
   48    51     1     0     0
SMALL
No Charge or Current Charge


@<TRIPOS>ATOM
      1 C10          1.2010    -2.0590    85.2640 ca         1 NN0      -0.132000
      2 C13         -0.9810    -3.7570    84.8670 ca         1 NN0      -0.005000
      3 C20         -3.5930    -1.1860    88.3620 c5         1 NN0       0.101700
      4 C24         -5.6340    -2.5610    88.4890 c5         1 NN0      -0.077400
      5 C26         -4.7380    -0.5870    87.4920 c5         1 NN0      -0.083400
      6 C1           4.5370    -4.9920    83.2440 ce         1 NN0       0.330100
      7 C2           5.3480    -6.1690    83.5490 ce         1 NN0      -0.251000
      8 C3           4.9040    -7.1390    84.3720 c2         1 NN0      -0.105200
      9 C4           3.4860    -7.0570    84.9010 c6         1 NN0      -0.177200
     10 C5           3.0220    -5.6020    85.0430 c          1 NN0       0.613300
     11 C6           3.4160    -4.6780    83.9500 cf         1 NN0      -0.475400
     12 C9           1.3310    -3.1680    84.4030 ca         1 NN0      -0.042600
     13 C11         -0.0250    -1.7720    85.9080 ca         1 NN0       0.125600
     14 C12         -1.0990    -2.6580    85.7490 ca         1 NN0      -0.201600
     15 C14          0.2200    -4.0040    84.1870 ca         1 NN0       0.109000
     16 C16         -1.3060    -0.5180    87.6400 c          1 NN0       0.624000
     17 C18         -2.3680    -2.4480    86.5140 c          1 NN0       0.590600
     18 C23         -4.1590    -2.5080    88.9940 c5         1 NN0      -0.083400
     19 C25         -5.9780    -1.0600    88.2900 c5         1 NN0      -0.077400
     20 N15         -0.1600    -0.6850    86.8310 n          1 NN0      -0.303000
     21 N17         -2.3810    -1.4160    87.4790 n          1 NN0      -0.365400
     22 O21         -3.3400    -3.1510    86.2710 o          1 NN0      -0.523000
     23 O28          2.4830    -5.2090    86.0660 o          1 NN0      -0.542100
     24 O29         -1.3610     0.3950    88.4550 o          1 NN0      -0.557000
     25 Cl1          0.2990    -5.3680    83.0700 cl         1 NN0      -0.191000
     26 H1           2.0740    -1.4310    85.4190 ha         1 NN0       0.131000
     27 H2          -1.8170    -4.4340    84.7100 ha         1 NN0       0.156000
     28 H3          -3.3830    -0.4980    89.1920 h1         1 NN0       0.084700
     29 H4          -6.3010    -3.0490    89.2090 hc         1 NN0       0.047200
     30 H5          -5.7190    -3.1160    87.5470 hc         1 NN0       0.047200
     31 H6          -4.6750     0.5040    87.4190 hc         1 NN0       0.053950
     32 H7          -4.7580    -0.9780    86.4680 hc         1 NN0       0.053950
     33 H8           6.3390    -6.2200    83.0960 ha         1 NN0       0.212000
     34 H9           5.5040    -8.0190    84.6210 ha         1 NN0       0.193000
     35 H10          2.8570    -7.5010    84.1190 hc         1 NN0       0.097200
     36 H12          0.5530     1.2820    87.3520 h1         1 NN0       0.060033
     37 H13          1.7640    -0.0230    87.4450 h1         1 NN0       0.060033
     38 H14          1.2230     0.6120    85.8620 h1         1 NN0       0.060033
     39 H15         -3.5950    -3.4150    88.7560 hc         1 NN0       0.053950
     40 H16         -4.1380    -2.4280    90.0870 hc         1 NN0       0.053950
     41 H17         -6.0770    -0.5320    89.2470 hc         1 NN0       0.047200
     42 H18         -6.9120    -0.9160    87.7350 hc         1 NN0       0.047200
     43 H19          4.3970    -3.4250    82.2860 ho         1 NN0       0.546000
     44 H20          3.3420    -7.6030    85.8420 hc         1 NN0       0.097200
     45 C8           2.6440    -3.4260    83.7160 c          1 NN0       0.630900
     46 C19          0.9040     0.3570    86.8800 c3         1 NN0       0.085300
     47 O7           5.0180    -4.1990    82.2690 oh         1 NN0      -0.531100
     48 O27          3.0820    -2.5940    82.9280 o          1 NN0      -0.589100
@<TRIPOS>BOND
     1     1    12 ar  
     2     1    13 ar  
     3     1    26 1   
     4     2    14 ar  
     5     2    15 ar  
     6     2    27 1   
     7     3     5 1   
     8     3    18 1   
     9     3    21 1   
    10     3    28 1   
    11     4    18 1   
    12     4    19 1   
    13     4    29 1   
    14     4    30 1   
    15     5    19 1   
    16     5    31 1   
    17     5    32 1   
    18     6     7 1   
    19     6    11 2   
    20     6    47 1   
    21     7     8 2   
    22     7    33 1   
    23     8     9 1   
    24     8    34 1   
    25     9    10 1   
    26     9    35 1   
    27     9    44 1   
    28    10    11 1   
    29    10    23 2   
    30    11    45 1   
    31    12    15 ar  
    32    12    45 1   
    33    13    14 ar  
    34    13    20 1   
    35    14    17 1   
    36    15    25 1   
    37    16    20 1   
    38    16    21 1   
    39    16    24 2   
    40    17    21 1   
    41    17    22 2   
    42    18    39 1   
    43    18    40 1   
    44    19    41 1   
    45    19    42 1   
    46    20    46 1   
    47    36    46 1   
    48    37    46 1   
    49    38    46 1   
    50    43    47 1   
    51    45    48 2   
@<TRIPOS>SUBSTRUCTURE
     1 NN0         1 TEMP              0 ****  ****    0 ROOT
