@<TRIPOS>MOLECULE
NN1
   56    59     1     0     0
SMALL
abcg2


@<TRIPOS>ATOM
      1 C4           3.8080    -2.4510     2.8540 ca         1 NN1       0.103100
      2 C5          -1.5800    -2.8790    -4.8980 c3         1 NN1      -0.328100
      3 C6           4.4780    -2.1680     4.0430 ca         1 NN1       0.124000
      4 C7           2.4270    -2.6130     2.8970 ca         1 NN1      -0.115000
      5 C8           1.7270    -2.4830     4.0860 ca         1 NN1      -0.135000
      6 C10          2.4280    -2.1830     5.2370 ca         1 NN1       0.173000
      7 C15          1.9140    -2.6050    -1.4490 c6         1 NN1       0.114700
      8 C17          0.7030    -0.7600    -0.2370 c6         1 NN1      -0.071900
      9 C20          2.2670    -1.6100    -2.5620 c6         1 NN1      -0.066200
     10 C21          1.1650    -1.6590    -3.6250 c6         1 NN1      -0.053400
     11 C22         -0.1630    -1.2540    -2.9800 c6         1 NN1      -0.238000
     12 C24         -0.5180    -2.2250    -1.8510 c6         1 NN1      -0.053400
     13 C1           5.9130    -3.6490     0.1840 c3         1 NN1      -0.097600
     14 C2           4.6210    -3.7590     0.9900 c3         1 NN1       0.115000
     15 C3           4.6720    -4.9570     1.9240 c3         1 NN1      -0.097600
     16 O3           4.5280    -2.5150     1.7090 os         1 NN1      -0.367100
     17 C14          3.4550    -3.8790    -0.0100 c          1 NN1       0.577100
     18 O1           3.0590    -4.9750    -0.3750 o          1 NN1      -0.602100
     19 N4           2.9810    -2.7140    -0.4770 ns         1 NN1      -0.496900
     20 C16          0.5910    -2.1790    -0.7970 c6         1 NN1      -0.066200
     21 C18          1.0440     0.2100    -1.3680 c6         1 NN1      -0.051700
     22 C19          2.3750    -0.1880    -2.0070 c6         1 NN1      -0.071900
     23 C23         -0.0620     0.1740    -2.4260 c6         1 NN1      -0.057400
     24 S1          -1.4860    -1.2310    -4.2250 s6         1 NN1       1.060000
     25 O2          -1.0880    -0.3250    -5.3070 o          1 NN1      -0.517000
     26 O4          -2.7540    -0.9550    -3.5420 o          1 NN1      -0.517000
     27 C9           3.7980    -2.0190     5.2420 ca         1 NN1      -0.135000
     28 CL1          6.1930    -1.9970     4.0170 cl         1 NN1      -0.172000
     29 F1           1.7610    -2.0430     6.3910 f          1 NN1      -0.170000
     30 H51         -0.6540    -3.1360    -5.4040 h1         1 NN1       0.103367
     31 H52         -1.7960    -3.5960    -4.1090 h1         1 NN1       0.103367
     32 H53         -2.3990    -2.8670    -5.6160 h1         1 NN1       0.103367
     33 H7           1.8800    -2.8400     1.9920 ha         1 NN1       0.132000
     34 H8           0.6530    -2.6070     4.1090 ha         1 NN1       0.139000
     35 H15          1.7910    -3.5970    -1.8890 h1         1 NN1       0.081700
     36 H171         1.4620    -0.7080     0.5510 hc         1 NN1       0.046950
     37 H172        -0.2410    -0.4750     0.2340 hc         1 NN1       0.046950
     38 H20          3.2120    -1.9100    -3.0220 hc         1 NN1       0.062200
     39 H211         1.4160    -0.9840    -4.4470 hc         1 NN1       0.057200
     40 H212         1.1050    -2.6700    -4.0370 hc         1 NN1       0.057200
     41 H241        -0.6220    -3.2450    -2.2310 hc         1 NN1       0.057200
     42 H242        -1.4720    -1.9470    -1.3980 hc         1 NN1       0.057200
     43 H11          6.0220    -4.5100    -0.4740 hc         1 NN1       0.056867
     44 H12          6.7710    -3.6200     0.8560 hc         1 NN1       0.056867
     45 H13          5.9230    -2.7490    -0.4310 hc         1 NN1       0.056867
     46 H31          3.7410    -5.1140     2.4690 hc         1 NN1       0.056867
     47 H32          5.4790    -4.8260     2.6460 hc         1 NN1       0.056867
     48 H33          4.8780    -5.8630     1.3570 hc         1 NN1       0.056867
     49 HN4          3.3720    -1.8650    -0.1000 hn         1 NN1       0.330500
     50 H16          0.3380    -2.8850    -0.0010 hc         1 NN1       0.062200
     51 H18          1.1120     1.2270    -0.9740 hc         1 NN1       0.059700
     52 H191         2.6310     0.5010    -2.8170 hc         1 NN1       0.046950
     53 H192         3.1870    -0.1040    -1.2780 hc         1 NN1       0.046950
     54 H231        -1.0130     0.4750    -1.9800 hc         1 NN1       0.066200
     55 H232         0.1650     0.8800    -3.2280 hc         1 NN1       0.066200
     56 H9           4.3270    -1.7890     6.1570 ha         1 NN1       0.150000
@<TRIPOS>BOND
     1     1     3 ar  
     2     1     4 ar  
     3     1    16 1   
     4     2    24 1   
     5     2    30 1   
     6     2    31 1   
     7     2    32 1   
     8     3    27 ar  
     9     3    28 1   
    10     4     5 ar  
    11     4    33 1   
    12     5     6 ar  
    13     5    34 1   
    14     6    27 ar  
    15     6    29 1   
    16     7     9 1   
    17     7    19 1   
    18     7    20 1   
    19     7    35 1   
    20     8    20 1   
    21     8    21 1   
    22     8    36 1   
    23     8    37 1   
    24     9    10 1   
    25     9    22 1   
    26     9    38 1   
    27    10    11 1   
    28    10    39 1   
    29    10    40 1   
    30    11    12 1   
    31    11    23 1   
    32    11    24 1   
    33    12    20 1   
    34    12    41 1   
    35    12    42 1   
    36    13    14 1   
    37    13    43 1   
    38    13    44 1   
    39    13    45 1   
    40    14    15 1   
    41    14    16 1   
    42    14    17 1   
    43    15    46 1   
    44    15    47 1   
    45    15    48 1   
    46    17    18 2   
    47    17    19 1   
    48    19    49 1   
    49    20    50 1   
    50    21    22 1   
    51    21    23 1   
    52    21    51 1   
    53    22    52 1   
    54    22    53 1   
    55    23    54 1   
    56    23    55 1   
    57    24    25 2   
    58    24    26 2   
    59    27    56 1   
@<TRIPOS>SUBSTRUCTURE
     1 NN1         1 TEMP              0 ****  ****    0 ROOT
