@<TRIPOS>MOLECULE
NN1
   56    59     1     0     0
SMALL
No Charge or Current Charge


@<TRIPOS>ATOM
      1 C4           3.7960    -2.4970     2.5280 ca         1 NN1       0.103100
      2 C5          -1.6600    -2.4890    -4.8400 c3         1 NN1      -0.328100
      3 C6           4.0480    -1.3250     3.2780 ca         1 NN1       0.124000
      4 C7           2.5250    -3.1160     2.6370 ca         1 NN1      -0.115000
      5 C8           1.5440    -2.5740     3.4880 ca         1 NN1      -0.135000
      6 C10          1.8160    -1.4150     4.2280 ca         1 NN1       0.173000
      7 C15          2.0700    -2.7320    -1.4560 c6         1 NN1       0.114700
      8 C17          0.8460    -1.1410     0.1430 c6         1 NN1      -0.071900
      9 C20          2.3590    -1.5160    -2.3890 c6         1 NN1      -0.066200
     10 C21          1.2000    -1.3860    -3.4210 c6         1 NN1      -0.053400
     11 C22         -0.1640    -1.1410    -2.6850 c6         1 NN1      -0.238000
     12 C24         -0.4230    -2.3370    -1.7010 c6         1 NN1      -0.053400
     13 C1           6.1480    -4.2000     0.1750 c3         1 NN1      -0.097600
     14 C2           4.7950    -4.2000     0.9270 c3         1 NN1       0.115000
     15 C3           4.7620    -5.3930     1.9260 c3         1 NN1      -0.097600
     16 O3           4.8100    -2.9630     1.6960 os         1 NN1      -0.367100
     17 C14          3.6420    -4.2300    -0.1350 c          1 NN1       0.577100
     18 O1           3.1350    -5.2660    -0.5480 o          1 NN1      -0.602100
     19 N4           3.1910    -2.9920    -0.5420 ns         1 NN1      -0.496900
     20 C16          0.7450    -2.4620    -0.6800 c6         1 NN1      -0.066200
     21 C18          1.1260     0.0510    -0.8120 c6         1 NN1      -0.051700
     22 C19          2.4620    -0.1970    -1.5670 c6         1 NN1      -0.071900
     23 C23         -0.0350     0.1730    -1.8390 c6         1 NN1      -0.057400
     24 S1          -1.5570    -0.9620    -3.9010 s6         1 NN1       1.060000
     25 O2          -1.2000     0.1010    -4.8500 o          1 NN1      -0.517000
     26 O4          -2.8100    -0.8400    -3.1440 o          1 NN1      -0.517000
     27 C9           3.0640    -0.7880     4.1250 ca         1 NN1      -0.135000
     28 Cl1          5.6060    -0.5040     3.1630 cl         1 NN1      -0.172000
     29 F1           0.8690    -0.8970     5.0390 f          1 NN1      -0.170000
     30 H51         -0.7080    -2.6320    -5.3610 h1         1 NN1       0.103367
     31 H52         -1.8610    -3.3060    -4.1410 h1         1 NN1       0.103367
     32 H53         -2.4820    -2.3770    -5.5540 h1         1 NN1       0.103367
     33 H7           2.2640    -3.9980     2.0640 ha         1 NN1       0.132000
     34 H8           0.5680    -3.0480     3.5680 ha         1 NN1       0.139000
     35 H15          1.9350    -3.6250    -2.0860 h1         1 NN1       0.081700
     36 H171         1.6430    -1.2060     0.8930 hc         1 NN1       0.046950
     37 H172        -0.0850    -0.9690     0.7000 hc         1 NN1       0.046950
     38 H20          3.3020    -1.6860    -2.9270 hc         1 NN1       0.062200
     39 H211         1.4170    -0.5630    -4.1170 hc         1 NN1       0.057200
     40 H212         1.1550    -2.2990    -4.0320 hc         1 NN1       0.057200
     41 H241        -0.5230    -3.2810    -2.2540 hc         1 NN1       0.057200
     42 H242        -1.3700    -2.1950    -1.1630 hc         1 NN1       0.057200
     43 H11          6.2580    -5.1100    -0.4280 hc         1 NN1       0.056867
     44 H12          6.9870    -4.1540     0.8800 hc         1 NN1       0.056867
     45 H13          6.2190    -3.3370    -0.4980 hc         1 NN1       0.056867
     46 H31          3.7880    -5.5160     2.4070 hc         1 NN1       0.056867
     47 H32          5.5140    -5.2590     2.7130 hc         1 NN1       0.056867
     48 H33          4.9850    -6.3320     1.4070 hc         1 NN1       0.056867
     49 HN4          3.6550    -2.1980    -0.1170 hn         1 NN1       0.330500
     50 H16          0.5410    -3.3020    -0.0010 hc         1 NN1       0.062200
     51 H18          1.2000     0.9800    -0.2290 hc         1 NN1       0.059700
     52 H191         2.6780     0.6480    -2.2350 hc         1 NN1       0.046950
     53 H192         3.2980    -0.2440    -0.8560 hc         1 NN1       0.046950
     54 H231        -0.9750     0.3830    -1.3080 hc         1 NN1       0.066200
     55 H232         0.1430     1.0370    -2.4950 hc         1 NN1       0.066200
     56 H9           3.2680     0.1120     4.6970 ha         1 NN1       0.150000
@<TRIPOS>BOND
     1     1     3 ar  
     2     1     4 ar  
     3     1    16 1   
     4     2    24 1   
     5     2    30 1   
     6     2    31 1   
     7     2    32 1   
     8     3    27 ar  
     9     3    28 1   
    10     4     5 ar  
    11     4    33 1   
    12     5     6 ar  
    13     5    34 1   
    14     6    27 ar  
    15     6    29 1   
    16     7     9 1   
    17     7    19 1   
    18     7    20 1   
    19     7    35 1   
    20     8    20 1   
    21     8    21 1   
    22     8    36 1   
    23     8    37 1   
    24     9    10 1   
    25     9    22 1   
    26     9    38 1   
    27    10    11 1   
    28    10    39 1   
    29    10    40 1   
    30    11    12 1   
    31    11    23 1   
    32    11    24 1   
    33    12    20 1   
    34    12    41 1   
    35    12    42 1   
    36    13    14 1   
    37    13    43 1   
    38    13    44 1   
    39    13    45 1   
    40    14    15 1   
    41    14    16 1   
    42    14    17 1   
    43    15    46 1   
    44    15    47 1   
    45    15    48 1   
    46    17    18 2   
    47    17    19 1   
    48    19    49 1   
    49    20    50 1   
    50    21    22 1   
    51    21    23 1   
    52    21    51 1   
    53    22    52 1   
    54    22    53 1   
    55    23    54 1   
    56    23    55 1   
    57    24    25 2   
    58    24    26 2   
    59    27    56 1   
@<TRIPOS>SUBSTRUCTURE
     1 NN1         1 TEMP              0 ****  ****    0 ROOT
