@<TRIPOS>MOLECULE
NN2
   48    52     1     0     0
SMALL
abcg2


@<TRIPOS>ATOM
      1 C4           4.3230    -0.3370    -0.1470 ca         1 NN2      -0.329500
      2 C5           3.3940    -1.0960     0.5770 ca         1 NN2       0.236400
      3 C6           3.8700    -2.2360     1.2310 ca         1 NN2      -0.093000
      4 C7           5.2010    -2.5980     1.1360 ca         1 NN2      -0.050000
      5 C8           6.0980    -1.8360     0.3910 ca         1 NN2      -0.130000
      6 C9           5.6610    -0.6940    -0.2540 ca         1 NN2      -0.002000
      7 N3           2.0430    -0.8110     0.6570 ne         1 NN2      -0.597100
      8 C15         -3.7960     2.9590     0.7780 ca         1 NN2       0.126000
      9 C20         -2.4360     2.8280     0.7160 ca         1 NN2      -0.067000
     10 C19         -1.8870     1.6130     0.2860 ca         1 NN2      -0.136800
     11 C22         -0.4620     1.4260     0.2220 cc         1 NN2       0.287900
     12 O23          0.2590     2.4790     0.5840 oh         1 NN2      -0.517100
     13 C16         -4.6420     1.9150     0.4340 ca         1 NN2      -0.084000
     14 C17         -4.1070     0.7190     0.0120 ca         1 NN2      -0.151000
     15 C18         -2.7180     0.5400    -0.0820 ca         1 NN2       0.120600
     16 N14         -2.1720    -0.6490    -0.5230 n          1 NN2      -0.282000
     17 C24         -3.0400    -1.7440    -0.9500 c3         1 NN2       0.089000
     18 C25         -3.4970    -2.6270     0.2050 c3         1 NN2      -0.067400
     19 C26         -4.4170    -3.7130    -0.2870 cx         1 NN2      -0.125700
     20 C30         -5.4500    -4.2990     0.6230 cx         1 NN2      -0.131400
     21 C29         -5.8680    -3.4100    -0.5110 cx         1 NN2      -0.131400
     22 C27         -0.8120    -0.8810    -0.5460 c          1 NN2       0.599200
     23 O28         -0.3570    -1.9590    -0.9040 o          1 NN2      -0.534000
     24 C1           0.0440     0.2220    -0.1590 cd         1 NN2      -0.410800
     25 C2           1.4970    -0.0180    -0.1800 cf         1 NN2       0.749500
     26 N11          2.1950     0.6810    -1.1460 nu         1 NN2      -0.894300
     27 S10          3.7620     1.1630    -0.8350 sy         1 NN2       1.185600
     28 O13          3.7180     2.1840     0.2000 o          1 NN2      -0.534000
     29 O12          4.4120     1.4720    -2.0900 o          1 NN2      -0.534000
     30 H6           3.1720    -2.8330     1.8010 ha         1 NN2       0.138000
     31 H7           5.5470    -3.4890     1.6430 ha         1 NN2       0.121000
     32 H8           7.1360    -2.1290     0.3190 ha         1 NN2       0.122000
     33 H9           6.3510    -0.0900    -0.8290 ha         1 NN2       0.132000
     34 H20         -1.7990     3.6550     0.9990 ha         1 NN2       0.154000
     35 HO23         1.2130     2.3310     0.5620 ho         1 NN2       0.502000
     36 H16         -5.7160     2.0340     0.5000 ha         1 NN2       0.138000
     37 H17         -4.7920    -0.0760    -0.2380 ha         1 NN2       0.132000
     38 H241        -3.8920    -1.3310    -1.4880 h1         1 NN2       0.068700
     39 H242        -2.4900    -2.3410    -1.6740 h1         1 NN2       0.068700
     40 H251        -2.6220    -3.0650     0.6910 hc         1 NN2       0.056700
     41 H252        -4.0060    -2.0260     0.9660 hc         1 NN2       0.056700
     42 H26         -3.9620    -4.4010    -0.9940 hc         1 NN2       0.082700
     43 H301        -5.6600    -5.3580     0.5450 hc         1 NN2       0.070950
     44 H302        -5.5220    -3.9060     1.6300 hc         1 NN2       0.070950
     45 H291        -6.2200    -2.4130    -0.2690 hc         1 NN2       0.070950
     46 H292        -6.3660    -3.8590    -1.3610 hc         1 NN2       0.070950
     47 HN11         1.6980     1.1600    -1.8910 hn         1 NN2       0.523000
     48 F21         -4.3300     4.1200     1.1850 f          1 NN2      -0.172000
@<TRIPOS>BOND
     1     1     2 ar  
     2     1     6 ar  
     3     1    27 1   
     4     2     3 ar  
     5     2     7 1   
     6     3     4 ar  
     7     3    30 1   
     8     4     5 ar  
     9     4    31 1   
    10     5     6 ar  
    11     5    32 1   
    12     6    33 1   
    13     7    25 2   
    14     8     9 ar  
    15     8    13 ar  
    16     8    48 1   
    17     9    10 ar  
    18     9    34 1   
    19    10    11 1   
    20    10    15 ar  
    21    11    12 1   
    22    11    24 2   
    23    12    35 1   
    24    13    14 ar  
    25    13    36 1   
    26    14    15 ar  
    27    14    37 1   
    28    15    16 1   
    29    16    17 1   
    30    16    22 1   
    31    17    18 1   
    32    17    38 1   
    33    17    39 1   
    34    18    19 1   
    35    18    40 1   
    36    18    41 1   
    37    19    20 1   
    38    19    21 1   
    39    19    42 1   
    40    20    21 1   
    41    20    43 1   
    42    20    44 1   
    43    21    45 1   
    44    21    46 1   
    45    22    23 2   
    46    22    24 1   
    47    24    25 1   
    48    25    26 1   
    49    26    27 1   
    50    26    47 1   
    51    27    28 2   
    52    27    29 2   
@<TRIPOS>SUBSTRUCTURE
     1 NN2         1 TEMP              0 ****  ****    0 ROOT
