@<TRIPOS>MOLECULE
NN2
   48    52     1     0     0
SMALL
No Charge or Current Charge


@<TRIPOS>ATOM
      1 C4           4.3700    -0.2310    -0.2080 ca         1 NN2      -0.329500
      2 C5           3.5900    -0.9250     0.7190 ca         1 NN2       0.236400
      3 C6           4.2190    -1.7250     1.6860 ca         1 NN2      -0.093000
      4 C7           5.6230    -1.8320     1.7110 ca         1 NN2      -0.050000
      5 C8           6.3980    -1.1380     0.7640 ca         1 NN2      -0.130000
      6 C9           5.7730    -0.3350    -0.2060 ca         1 NN2      -0.002000
      7 N3           2.1860    -0.8150     0.6890 ne         1 NN2      -0.597100
      8 C15         -3.4690     2.8870     1.2310 ca         1 NN2       0.126000
      9 C20         -2.1080     2.6330     1.0260 ca         1 NN2      -0.067000
     10 C19         -1.6780     1.4160     0.4370 ca         1 NN2      -0.136800
     11 C22         -0.2500     1.1390     0.2620 cc         1 NN2       0.287900
     12 O23          0.6070     2.1170     0.6260 oh         1 NN2      -0.517100
     13 C16         -4.4230     1.9320     0.8700 ca         1 NN2      -0.084000
     14 C17         -4.0120     0.7240     0.2840 ca         1 NN2      -0.151000
     15 C18         -2.6400     0.4670     0.0280 ca         1 NN2       0.120600
     16 N14         -2.1940    -0.7880    -0.5200 n          1 NN2      -0.282000
     17 C24         -3.1840    -1.7510    -1.0790 c3         1 NN2       0.089000
     18 C25         -3.7490    -2.7220    -0.0200 c3         1 NN2      -0.067400
     19 C26         -4.8220    -3.6450    -0.5860 cx         1 NN2      -0.125700
     20 C30         -5.8830    -4.2430     0.3070 cx         1 NN2      -0.131400
     21 C29         -6.2560    -3.1850    -0.7070 cx         1 NN2      -0.131400
     22 C27         -0.8260    -1.1160    -0.6410 c          1 NN2       0.599200
     23 O28         -0.4570    -2.2030    -1.0670 o          1 NN2      -0.534000
     24 C1           0.1370    -0.0810    -0.2410 cd         1 NN2      -0.410800
     25 C2           1.5040    -0.4870    -0.3670 cf         1 NN2       0.749500
     26 N11          2.0800    -0.1200    -1.5280 nu         1 NN2      -0.894300
     27 S10          3.4890     0.7150    -1.3990 sy         1 NN2       1.185600
     28 O13          3.0390     1.9750    -0.8050 o          1 NN2      -0.534000
     29 O12          4.1170     0.6390    -2.7180 o          1 NN2      -0.534000
     30 H6           3.6200    -2.2640     2.4140 ha         1 NN2       0.138000
     31 H7           6.1070    -2.4540     2.4620 ha         1 NN2       0.121000
     32 H8           7.4820    -1.2250     0.7810 ha         1 NN2       0.122000
     33 H9           6.3750     0.1960    -0.9430 ha         1 NN2       0.132000
     34 H20         -1.3940     3.3890     1.3420 ha         1 NN2       0.154000
     35 HO23         1.4860     1.9270     0.2270 ho         1 NN2       0.502000
     36 H16         -5.4790     2.1250     1.0490 ha         1 NN2       0.138000
     37 H17         -4.7830     0.0030     0.0350 ha         1 NN2       0.132000
     38 H241        -4.0050    -1.1980    -1.5510 h1         1 NN2       0.068700
     39 H242        -2.7270    -2.3350    -1.8880 h1         1 NN2       0.068700
     40 H251        -2.9250    -3.3250     0.3820 hc         1 NN2       0.056700
     41 H252        -4.1500    -2.1490     0.8240 hc         1 NN2       0.056700
     42 H26         -4.4450    -4.2820    -1.3840 hc         1 NN2       0.082700
     43 H301        -6.1930    -5.2660     0.1100 hc         1 NN2       0.070950
     44 H302        -5.8880    -3.9610     1.3580 hc         1 NN2       0.070950
     45 H291        -6.5110    -2.1950    -0.3340 hc         1 NN2       0.070950
     46 H292        -6.8160    -3.4980    -1.5850 hc         1 NN2       0.070950
     47 HN11         1.4800     0.4360    -2.1110 hn         1 NN2       0.523000
     48 F21         -3.8610     4.0490     1.7990 f          1 NN2      -0.172000
@<TRIPOS>BOND
     1     1     2 ar  
     2     1     6 ar  
     3     1    27 1   
     4     2     3 ar  
     5     2     7 1   
     6     3     4 ar  
     7     3    30 1   
     8     4     5 ar  
     9     4    31 1   
    10     5     6 ar  
    11     5    32 1   
    12     6    33 1   
    13     7    25 2   
    14     8     9 ar  
    15     8    13 ar  
    16     8    48 1   
    17     9    10 ar  
    18     9    34 1   
    19    10    11 1   
    20    10    15 ar  
    21    11    12 1   
    22    11    24 2   
    23    12    35 1   
    24    13    14 ar  
    25    13    36 1   
    26    14    15 ar  
    27    14    37 1   
    28    15    16 1   
    29    16    17 1   
    30    16    22 1   
    31    17    18 1   
    32    17    38 1   
    33    17    39 1   
    34    18    19 1   
    35    18    40 1   
    36    18    41 1   
    37    19    20 1   
    38    19    21 1   
    39    19    42 1   
    40    20    21 1   
    41    20    43 1   
    42    20    44 1   
    43    21    45 1   
    44    21    46 1   
    45    22    23 2   
    46    22    24 1   
    47    24    25 1   
    48    25    26 1   
    49    26    27 1   
    50    26    47 1   
    51    27    28 2   
    52    27    29 2   
@<TRIPOS>SUBSTRUCTURE
     1 NN2         1 TEMP              0 ****  ****    0 ROOT
