@<TRIPOS>MOLECULE
NN3
   53    55     1     0     0
SMALL
No Charge or Current Charge


@<TRIPOS>ATOM
      1 C4           4.1910     1.7640    -1.8670 c6         1 NN3      -0.061700
      2 C5           3.4910     2.7890    -0.9320 c6         1 NN3      -0.067900
      3 C6           1.9490     2.6100    -0.9270 c6         1 NN3      -0.059400
      4 C11         -0.3360    -0.8180     0.6500 cc         1 NN3      -0.028400
      5 C7           5.7330     1.9400    -1.8460 c3         1 NN3      -0.082100
      6 C8           1.5830     0.7080     0.8770 c          1 NN3       0.621100
      7 C10         -0.7010    -2.0330     0.1040 cd         1 NN3      -0.213600
      8 C12         -1.3670     0.1600     0.6250 cc         1 NN3      -0.131000
      9 C13         -2.5320    -0.2720     0.0410 cd         1 NN3      -0.252000
     10 C3           3.7820     0.3100    -1.5000 c6         1 NN3      -0.067900
     11 O27          2.3160     1.3070     1.6590 o          1 NN3      -0.639100
     12 C1           1.5270     1.1420    -0.6240 c6         1 NN3      -0.133700
     13 C2           2.2460     0.1300    -1.5570 c6         1 NN3      -0.059400
     14 N14          0.8630    -0.4590     1.2760 n          1 NN3      -0.277000
     15 C22          1.1950    -1.1210     2.5700 c3         1 NN3       0.135700
     16 C24          2.6850    -1.5000     2.7590 c3         1 NN3      -0.102600
     17 C23          0.5840    -0.3970     3.7900 c3         1 NN3      -0.102600
     18 C15          0.1340    -3.2490    -0.0880 c          1 NN3       0.730600
     19 O26          1.3110    -3.2440     0.2340 o          1 NN3      -0.698000
     20 O25         -0.3990    -4.2270    -0.5940 o          1 NN3      -0.698000
     21 S9          -2.3770    -1.9720    -0.4660 ss         1 NN3       0.274000
     22 C16         -3.7810     0.5010    -0.1500 ca         1 NN3       0.038000
     23 C21         -4.9090    -0.0830    -0.7710 ca         1 NN3      -0.114000
     24 C20         -6.0930     0.6520    -0.9520 ca         1 NN3      -0.113000
     25 C19         -6.1700     1.9830    -0.5160 ca         1 NN3      -0.134000
     26 C18         -5.0600     2.5780     0.1010 ca         1 NN3      -0.113000
     27 C17         -3.8750     1.8430     0.2820 ca         1 NN3      -0.114000
     28 H4           3.8750     1.9640    -2.9010 hc         1 NN3       0.030700
     29 H51          3.7360     3.8110    -1.2520 hc         1 NN3       0.041950
     30 H52          3.8860     2.6900     0.0880 hc         1 NN3       0.041950
     31 H61          1.5570     2.8980    -1.9130 hc         1 NN3       0.045700
     32 H62          1.4880     3.2960    -0.2040 hc         1 NN3       0.045700
     33 H71          6.1420     1.7560    -0.8460 hc         1 NN3       0.024367
     34 H72          6.2200     1.2450    -2.5400 hc         1 NN3       0.024367
     35 H73          6.0180     2.9570    -2.1430 hc         1 NN3       0.024367
     36 H12         -1.2190     1.1500     1.0430 ha         1 NN3       0.117000
     37 H31          4.2580    -0.3990    -2.1910 hc         1 NN3       0.041950
     38 H32          4.1490     0.0580    -0.4950 hc         1 NN3       0.041950
     39 H1           0.4820     1.0300    -0.9290 hc         1 NN3       0.066700
     40 H21A         1.9780    -0.9010    -1.2910 hc         1 NN3       0.045700
     41 H22A         1.9040     0.2770    -2.5910 hc         1 NN3       0.045700
     42 H22          0.6740    -2.0870     2.5400 h1         1 NN3       0.063700
     43 H241         2.7910    -2.2150     3.5820 hc         1 NN3       0.038200
     44 H242         3.0890    -1.9640     1.8520 hc         1 NN3       0.038200
     45 H243         3.3000    -0.6260     3.0000 hc         1 NN3       0.038200
     46 H231         1.0480     0.5840     3.9420 hc         1 NN3       0.038200
     47 H232        -0.4940    -0.2500     3.6510 hc         1 NN3       0.038200
     48 H233         0.7310    -0.9890     4.7010 hc         1 NN3       0.038200
     49 H21         -4.8830    -1.1110    -1.1210 ha         1 NN3       0.117000
     50 H20         -6.9520     0.1880    -1.4310 ha         1 NN3       0.100500
     51 H19         -7.0860     2.5520    -0.6570 ha         1 NN3       0.098000
     52 H18         -5.1150     3.6100     0.4400 ha         1 NN3       0.100500
     53 H17         -3.0330     2.3320     0.7620 ha         1 NN3       0.117000
@<TRIPOS>BOND
     1     1     2 1   
     2     1     5 1   
     3     1    10 1   
     4     1    28 1   
     5     2     3 1   
     6     2    29 1   
     7     2    30 1   
     8     3    12 1   
     9     3    31 1   
    10     3    32 1   
    11     4     7 2   
    12     4     8 1   
    13     4    14 1   
    14     5    33 1   
    15     5    34 1   
    16     5    35 1   
    17     6    11 2   
    18     6    12 1   
    19     6    14 1   
    20     7    18 1   
    21     7    21 1   
    22     8     9 2   
    23     8    36 1   
    24     9    21 1   
    25     9    22 1   
    26    10    13 1   
    27    10    37 1   
    28    10    38 1   
    29    12    13 1   
    30    12    39 1   
    31    13    40 1   
    32    13    41 1   
    33    14    15 1   
    34    15    16 1   
    35    15    17 1   
    36    15    42 1   
    37    16    43 1   
    38    16    44 1   
    39    16    45 1   
    40    17    46 1   
    41    17    47 1   
    42    17    48 1   
    43    18    19 1   
    44    18    20 1   
    45    22    23 ar  
    46    22    27 ar  
    47    23    24 ar  
    48    23    49 1   
    49    24    25 ar  
    50    24    50 1   
    51    25    26 ar  
    52    25    51 1   
    53    26    27 ar  
    54    26    52 1   
    55    27    53 1   
@<TRIPOS>SUBSTRUCTURE
     1 NN3         1 TEMP              0 ****  ****    0 ROOT
