@<TRIPOS>MOLECULE
NN3
   53    55     1     0     0
SMALL
abcg2


@<TRIPOS>ATOM
      1 C4           4.2450     1.6450    -1.9120 c6         1 NN3      -0.061700
      2 C5           3.5950     2.6600    -0.9750 c6         1 NN3      -0.067900
      3 C6           2.0780     2.5030    -0.9050 c6         1 NN3      -0.059400
      4 C11         -0.3040    -0.6110     0.6350 cc         1 NN3      -0.028400
      5 C7           5.7600     1.7910    -1.9260 c3         1 NN3      -0.082100
      6 C8           1.7500     0.6600     0.8280 c          1 NN3       0.621100
      7 C10         -0.5950    -1.7800    -0.0180 cd         1 NN3      -0.213600
      8 C12         -1.4050     0.2890     0.6720 cc         1 NN3      -0.131000
      9 C13         -2.5180    -0.1890     0.0380 cd         1 NN3      -0.252000
     10 C3           3.8210     0.2300    -1.5260 c6         1 NN3      -0.067900
     11 O27          2.6290     1.1300     1.5360 o          1 NN3      -0.639100
     12 C1           1.5880     1.0790    -0.6260 c6         1 NN3      -0.133700
     13 C2           2.3060     0.0680    -1.5380 c6         1 NN3      -0.059400
     14 N14          0.9130    -0.3090     1.2880 n          1 NN3      -0.277000
     15 C22          1.0800    -0.9100     2.6260 c3         1 NN3       0.135700
     16 C24          2.4690    -1.4870     2.8690 c3         1 NN3      -0.102600
     17 C23          0.6440     0.0400     3.7350 c3         1 NN3      -0.102600
     18 C15          0.1960    -3.0300    -0.3060 c          1 NN3       0.730600
     19 O26          1.3730    -3.0750     0.0840 o          1 NN3      -0.698000
     20 O25         -0.4430    -3.9050    -0.9250 o          1 NN3      -0.698000
     21 S9          -2.2150    -1.7660    -0.5900 ss         1 NN3       0.274000
     22 C16         -3.8190     0.4610    -0.1130 ca         1 NN3       0.038000
     23 C21         -4.6880     0.1140    -1.1500 ca         1 NN3      -0.114000
     24 C20         -5.9230     0.7320    -1.2780 ca         1 NN3      -0.113000
     25 C19         -6.3100     1.7160    -0.3780 ca         1 NN3      -0.134000
     26 C18         -5.4520     2.0730     0.6540 ca         1 NN3      -0.113000
     27 C17         -4.2220     1.4500     0.7890 ca         1 NN3      -0.114000
     28 H4           3.8750     1.8360    -2.9290 hc         1 NN3       0.030700
     29 H51          3.8340     3.6740    -1.3090 hc         1 NN3       0.041950
     30 H52          4.0250     2.5510     0.0220 hc         1 NN3       0.041950
     31 H61          1.6520     2.7980    -1.8700 hc         1 NN3       0.045700
     32 H62          1.6610     3.1970    -0.1700 hc         1 NN3       0.045700
     33 H71          6.1820     1.5830    -0.9390 hc         1 NN3       0.024367
     34 H72          6.2200     1.0990    -2.6340 hc         1 NN3       0.024367
     35 H73          6.0620     2.8020    -2.2070 hc         1 NN3       0.024367
     36 H12         -1.3470     1.2650     1.1370 ha         1 NN3       0.117000
     37 H31          4.2640    -0.4920    -2.2180 hc         1 NN3       0.041950
     38 H32          4.2250    -0.0100    -0.5360 hc         1 NN3       0.041950
     39 H1           0.5290     1.0440    -0.8890 hc         1 NN3       0.066700
     40 H21A         2.0290    -0.9510    -1.2610 hc         1 NN3       0.045700
     41 H22A         1.9440     0.2280    -2.5590 hc         1 NN3       0.045700
     42 H22          0.3900    -1.7550     2.6210 h1         1 NN3       0.063700
     43 H241         2.4260    -2.1430     3.7390 hc         1 NN3       0.038200
     44 H242         2.7820    -2.0800     2.0130 hc         1 NN3       0.038200
     45 H243         3.2140    -0.7190     3.0620 hc         1 NN3       0.038200
     46 H231         1.3130     0.8950     3.8120 hc         1 NN3       0.038200
     47 H232        -0.3700     0.4090     3.5680 hc         1 NN3       0.038200
     48 H233         0.6480    -0.4820     4.6940 hc         1 NN3       0.038200
     49 H21         -4.3980    -0.6360    -1.8770 ha         1 NN3       0.117000
     50 H20         -6.5810     0.4460    -2.0880 ha         1 NN3       0.100500
     51 H19         -7.2740     2.1980    -0.4780 ha         1 NN3       0.098000
     52 H18         -5.7460     2.8330     1.3670 ha         1 NN3       0.100500
     53 H17         -3.5760     1.7260     1.6130 ha         1 NN3       0.117000
@<TRIPOS>BOND
     1     1     2 1   
     2     1     5 1   
     3     1    10 1   
     4     1    28 1   
     5     2     3 1   
     6     2    29 1   
     7     2    30 1   
     8     3    12 1   
     9     3    31 1   
    10     3    32 1   
    11     4     7 2   
    12     4     8 1   
    13     4    14 1   
    14     5    33 1   
    15     5    34 1   
    16     5    35 1   
    17     6    11 2   
    18     6    12 1   
    19     6    14 1   
    20     7    18 1   
    21     7    21 1   
    22     8     9 2   
    23     8    36 1   
    24     9    21 1   
    25     9    22 1   
    26    10    13 1   
    27    10    37 1   
    28    10    38 1   
    29    12    13 1   
    30    12    39 1   
    31    13    40 1   
    32    13    41 1   
    33    14    15 1   
    34    15    16 1   
    35    15    17 1   
    36    15    42 1   
    37    16    43 1   
    38    16    44 1   
    39    16    45 1   
    40    17    46 1   
    41    17    47 1   
    42    17    48 1   
    43    18    19 1   
    44    18    20 1   
    45    22    23 ar  
    46    22    27 ar  
    47    23    24 ar  
    48    23    49 1   
    49    24    25 ar  
    50    24    50 1   
    51    25    26 ar  
    52    25    51 1   
    53    26    27 ar  
    54    26    52 1   
    55    27    53 1   
@<TRIPOS>SUBSTRUCTURE
     1 NN3         1 TEMP              0 ****  ****    0 ROOT
