@<TRIPOS>MOLECULE
NN4
   58    61     1     0     0
SMALL
No Charge or Current Charge


@<TRIPOS>ATOM
      1 C4           1.0140    -0.8610    -4.6010 c6         1 NN4      -0.070900
      2 C5           1.7840     0.2280    -3.7960 c6         1 NN4      -0.075700
      3 C6           1.1700     0.3280    -2.3680 c6         1 NN4      -0.056400
      4 C7           2.8410    -1.4210    -1.5440 c6         1 NN4      -0.056400
      5 C8           2.6500    -2.6160    -3.7740 c6         1 NN4      -0.070900
      6 C10          3.4270    -1.5210    -2.9810 c6         1 NN4      -0.075700
      7 C15          5.2490     0.0970    -5.2930 c          1 NN4       0.576100
      8 C20          6.3630    -1.3060    -7.0700 c3         1 NN4      -0.096100
      9 C21          3.4760     0.9350    -7.8380 ca         1 NN4       0.068100
     10 C22          2.5160     0.7130    -8.8400 ca         1 NN4      -0.092000
     11 C24          1.3570     2.7710    -8.2390 ca         1 NN4       0.134100
     12 C26          3.3660     2.0890    -7.0260 ca         1 NN4      -0.092000
     13 C28          0.0970     4.8250    -7.7050 c3         1 NN4       0.147900
     14 O17          6.0530     0.3820    -4.4130 o          1 NN4      -0.606100
     15 N11          3.9250    -0.1460    -5.0080 ns         1 NN4      -0.495900
     16 C9           3.2980    -0.1350    -3.6840 c6         1 NN4       0.119700
     17 C3           1.1490    -2.2250    -3.8720 c6         1 NN4      -0.059700
     18 C2           0.5480    -2.1010    -2.4410 c6         1 NN4      -0.061400
     19 C1           1.3260    -1.0300    -1.5950 c6         1 NN4      -0.129000
     20 C12          0.6960    -0.9100    -0.1750 c          1 NN4       0.610100
     21 O14          1.3230    -1.0880     0.8570 o          1 NN4      -0.603100
     22 N13         -0.6160    -0.5890    -0.1050 nt         1 NN4      -0.611000
     23 C16          5.6260     0.0310    -6.8150 c3         1 NN4       0.113000
     24 C19          6.5230     1.2140    -7.2790 c3         1 NN4      -0.096100
     25 O18          4.4610    -0.0330    -7.6940 os         1 NN4      -0.381100
     26 C25          2.3120     3.0000    -7.2260 ca         1 NN4      -0.160000
     27 O27          0.3020     3.6290    -8.4780 os         1 NN4      -0.340100
     28 C23          1.4660     1.6250    -9.0410 ca         1 NN4      -0.160000
     29 H41          1.3960    -0.9350    -5.6280 hc         1 NN4       0.042450
     30 H42         -0.0460    -0.5840    -4.6910 hc         1 NN4       0.042450
     31 H5           1.6790     1.1980    -4.3020 hc         1 NN4       0.064700
     32 H61          1.6670     1.1340    -1.8090 hc         1 NN4       0.053950
     33 H62          0.1140     0.6210    -2.4450 hc         1 NN4       0.053950
     34 H71          2.9680    -2.3800    -1.0230 hc         1 NN4       0.053950
     35 H72          3.4060    -0.6770    -0.9640 hc         1 NN4       0.053950
     36 H81          2.7550    -3.5890    -3.2750 hc         1 NN4       0.042450
     37 H82          3.0770    -2.7420    -4.7790 hc         1 NN4       0.042450
     38 H10          4.4880    -1.8000    -2.9170 hc         1 NN4       0.064700
     39 H201         7.2880    -1.3600    -6.4830 hc         1 NN4       0.053033
     40 H202         6.6250    -1.4130    -8.1300 hc         1 NN4       0.053033
     41 H203         5.7320    -2.1560    -6.7850 hc         1 NN4       0.053033
     42 H22          2.5880    -0.1740    -9.4640 ha         1 NN4       0.125000
     43 H26          4.0680     2.2930    -6.2260 ha         1 NN4       0.125000
     44 H281         0.9560     5.5010    -7.7970 h1         1 NN4       0.041033
     45 H282        -0.0510     4.5830    -6.6440 h1         1 NN4       0.041033
     46 H283        -0.7950     5.3570    -8.0590 h1         1 NN4       0.041033
     47 HN11         3.3430    -0.3490    -5.8120 hn         1 NN4       0.329500
     48 H9           3.8020     0.6300    -3.0740 h1         1 NN4       0.075700
     49 H3           0.6040    -2.9960    -4.4330 hc         1 NN4       0.052700
     50 H21         -0.5190    -1.8470    -2.5160 hc         1 NN4       0.043200
     51 H22A         0.5920    -3.0760    -1.9370 hc         1 NN4       0.043200
     52 H131        -1.0550    -0.5030     0.7990 hn         1 NN4       0.311500
     53 H132        -1.1450    -0.4420    -0.9500 hn         1 NN4       0.311500
     54 H191         6.1050     2.1880    -7.0100 hc         1 NN4       0.053033
     55 H192         6.6640     1.1900    -8.3660 hc         1 NN4       0.053033
     56 H193         7.5130     1.1490    -6.8120 hc         1 NN4       0.053033
     57 H25          2.2530     3.8740    -6.5830 ha         1 NN4       0.124500
     58 H23          0.7310     1.4420    -9.8210 ha         1 NN4       0.124500
@<TRIPOS>BOND
     1     1     2 1   
     2     1    17 1   
     3     1    29 1   
     4     1    30 1   
     5     2     3 1   
     6     2    16 1   
     7     2    31 1   
     8     3    19 1   
     9     3    32 1   
    10     3    33 1   
    11     4     6 1   
    12     4    19 1   
    13     4    34 1   
    14     4    35 1   
    15     5     6 1   
    16     5    17 1   
    17     5    36 1   
    18     5    37 1   
    19     6    16 1   
    20     6    38 1   
    21     7    14 2   
    22     7    15 1   
    23     7    23 1   
    24     8    23 1   
    25     8    39 1   
    26     8    40 1   
    27     8    41 1   
    28     9    10 ar  
    29     9    12 ar  
    30     9    25 1   
    31    10    28 ar  
    32    10    42 1   
    33    11    26 ar  
    34    11    27 1   
    35    11    28 ar  
    36    12    26 ar  
    37    12    43 1   
    38    13    27 1   
    39    13    44 1   
    40    13    45 1   
    41    13    46 1   
    42    15    16 1   
    43    15    47 1   
    44    16    48 1   
    45    17    18 1   
    46    17    49 1   
    47    18    19 1   
    48    18    50 1   
    49    18    51 1   
    50    19    20 1   
    51    20    21 2   
    52    20    22 1   
    53    22    52 1   
    54    22    53 1   
    55    23    24 1   
    56    23    25 1   
    57    24    54 1   
    58    24    55 1   
    59    24    56 1   
    60    26    57 1   
    61    28    58 1   
@<TRIPOS>SUBSTRUCTURE
     1 NN4         1 TEMP              0 ****  ****    0 ROOT
