@<TRIPOS>MOLECULE
NN4
   58    61     1     0     0
SMALL
bcc


@<TRIPOS>ATOM
      1 C4           0.7740    -1.4640    -4.0020 c6         1 NN4      -0.070900
      2 C5           1.3930    -0.2090    -3.3790 c6         1 NN4      -0.075700
      3 C6           1.0490    -0.1710    -1.8890 c6         1 NN4      -0.056400
      4 C7           3.1280    -1.4460    -1.3700 c6         1 NN4      -0.056400
      5 C8           2.8680    -2.7310    -3.4990 c6         1 NN4      -0.070900
      6 C10          3.4740    -1.4840    -2.8580 c6         1 NN4      -0.075700
      7 C15          4.5270     0.2930    -5.3040 c          1 NN4       0.643100
      8 C20          5.4390    -1.2640    -6.9800 c3         1 NN4      -0.096100
      9 C21          3.1330     1.2800    -8.0780 ca         1 NN4       0.068100
     10 C22          3.2080     1.4800    -9.4540 ca         1 NN4      -0.110000
     11 C24          2.0970     3.6080    -9.2290 ca         1 NN4       0.134100
     12 C26          2.5350     2.2480    -7.2860 ca         1 NN4      -0.110000
     13 C28          1.0290     5.7220    -9.1060 c3         1 NN4       0.124700
     14 O17          5.3840     0.7010    -4.5330 o          1 NN4      -0.606100
     15 N11          3.3100    -0.1080    -4.9150 ns         1 NN4      -0.562900
     16 C9           2.9180    -0.2160    -3.5230 c6         1 NN4       0.119700
     17 C3           1.3490    -2.7080    -3.3240 c6         1 NN4      -0.059700
     18 C2           1.0070    -2.6780    -1.8330 c6         1 NN4      -0.061400
     19 C1           1.6070    -1.4190    -1.1780 c6         1 NN4      -0.129000
     20 C12          1.2660    -1.3760     0.3110 c          1 NN4       0.677100
     21 O14          2.1250    -1.3640     1.1820 o          1 NN4      -0.603100
     22 N13         -0.0430    -1.3510     0.6120 nt         1 NN4      -0.678000
     23 C16          4.8350     0.1280    -6.8020 c3         1 NN4       0.089800
     24 C19          5.8100     1.1960    -7.2750 c3         1 NN4      -0.096100
     25 O18          3.6210     0.1080    -7.5670 os         1 NN4      -0.357900
     26 C25          2.0220     3.4090    -7.8540 ca         1 NN4      -0.178000
     27 O27          1.6270     4.6970    -9.8710 os         1 NN4      -0.316900
     28 C23          2.6920     2.6280   -10.0260 ca         1 NN4      -0.178000
     29 H41          0.9430    -1.5060    -5.0830 hc         1 NN4       0.042450
     30 H42         -0.3120    -1.4310    -3.8760 hc         1 NN4       0.042450
     31 H5           0.9890     0.6870    -3.8600 hc         1 NN4       0.064700
     32 H61          1.4650     0.7320    -1.4290 hc         1 NN4       0.053950
     33 H62         -0.0370    -0.1050    -1.7800 hc         1 NN4       0.053950
     34 H71          3.5550    -2.3220    -0.8740 hc         1 NN4       0.053950
     35 H72          3.5830    -0.5650    -0.9060 hc         1 NN4       0.053950
     36 H81          3.2870    -3.6240    -3.0260 hc         1 NN4       0.042450
     37 H82          3.1300    -2.7920    -4.5600 hc         1 NN4       0.042450
     38 H10          4.5610    -1.4970    -2.9670 hc         1 NN4       0.064700
     39 H201         6.3130    -1.3890    -6.3420 hc         1 NN4       0.053033
     40 H202         5.7470    -1.4110    -8.0150 hc         1 NN4       0.053033
     41 H203         4.7190    -2.0430    -6.7220 hc         1 NN4       0.053033
     42 H22          3.6730     0.7290   -10.0790 ha         1 NN4       0.143000
     43 H26          2.4530     2.1120    -6.2160 ha         1 NN4       0.143000
     44 H281         1.7240     6.1480    -8.3770 h1         1 NN4       0.041033
     45 H282         0.1380     5.3710    -8.5770 h1         1 NN4       0.041033
     46 H283         0.7360     6.5000    -9.8060 h1         1 NN4       0.041033
     47 HN11         2.6880    -0.4640    -5.6240 hn         1 NN4       0.329500
     48 H9           3.3170     0.6580    -3.0010 h1         1 NN4       0.075700
     49 H3           0.9110    -3.6050    -3.7710 hc         1 NN4       0.052700
     50 H21         -0.0800    -2.7060    -1.7110 hc         1 NN4       0.043200
     51 H22A         1.4020    -3.5720    -1.3400 hc         1 NN4       0.043200
     52 H131        -0.3410    -1.3230     1.5740 hn         1 NN4       0.311500
     53 H132        -0.7650    -1.3650    -0.0860 hn         1 NN4       0.311500
     54 H191         5.4500     2.2090    -7.0920 hc         1 NN4       0.053033
     55 H192         5.9950     1.0870    -8.3440 hc         1 NN4       0.053033
     56 H193         6.7610     1.0840    -6.7590 hc         1 NN4       0.053033
     57 H25          1.5630     4.1420    -7.2040 ha         1 NN4       0.142500
     58 H23          2.7530     2.7750   -11.0970 ha         1 NN4       0.142500
@<TRIPOS>BOND
     1     1     2 1   
     2     1    17 1   
     3     1    29 1   
     4     1    30 1   
     5     2     3 1   
     6     2    16 1   
     7     2    31 1   
     8     3    19 1   
     9     3    32 1   
    10     3    33 1   
    11     4     6 1   
    12     4    19 1   
    13     4    34 1   
    14     4    35 1   
    15     5     6 1   
    16     5    17 1   
    17     5    36 1   
    18     5    37 1   
    19     6    16 1   
    20     6    38 1   
    21     7    14 2   
    22     7    15 1   
    23     7    23 1   
    24     8    23 1   
    25     8    39 1   
    26     8    40 1   
    27     8    41 1   
    28     9    10 ar  
    29     9    12 ar  
    30     9    25 1   
    31    10    28 ar  
    32    10    42 1   
    33    11    26 ar  
    34    11    27 1   
    35    11    28 ar  
    36    12    26 ar  
    37    12    43 1   
    38    13    27 1   
    39    13    44 1   
    40    13    45 1   
    41    13    46 1   
    42    15    16 1   
    43    15    47 1   
    44    16    48 1   
    45    17    18 1   
    46    17    49 1   
    47    18    19 1   
    48    18    50 1   
    49    18    51 1   
    50    19    20 1   
    51    20    21 2   
    52    20    22 1   
    53    22    52 1   
    54    22    53 1   
    55    23    24 1   
    56    23    25 1   
    57    24    54 1   
    58    24    55 1   
    59    24    56 1   
    60    26    57 1   
    61    28    58 1   
@<TRIPOS>SUBSTRUCTURE
     1 NN4         1 TEMP              0 ****  ****    0 ROOT
