@<TRIPOS>MOLECULE
NN5
   58    62     1     0     0
SMALL
No Charge or Current Charge


@<TRIPOS>ATOM
      1 N1          45.0160    33.4650    37.0090 na         1 NN5       0.304400
      2 C5          45.5570    32.2340    36.7890 cc         1 NN5      -0.029000
      3 C6          44.9000    31.0580    37.2150 cc         1 NN5      -0.109000
      4 C7          43.6890    31.1830    37.8500 cd         1 NN5      -0.064000
      5 C8          43.1010    32.5000    38.0640 cd         1 NN5      -0.073000
      6 C10         41.8030    32.6380    38.7860 ca         1 NN5      -0.068000
      7 C13         39.3260    32.8990    40.1590 ca         1 NN5       0.149100
      8 C15         41.4280    33.8610    39.3920 ca         1 NN5      -0.063500
      9 C20         48.2720    35.5890    35.1290 ca         1 NN5       0.348000
     10 C21         47.3840    36.6740    35.0160 ca         1 NN5      -0.176000
     11 C22         47.8510    37.9450    34.6370 ca         1 NN5      -0.037000
     12 C24         50.1020    37.0600    34.4530 ca         1 NN5      -0.037000
     13 C29         51.7070    39.4810    35.5050 c6         1 NN5       0.067000
     14 C30         52.3640    40.6630    36.2680 c6         1 NN5       0.142600
     15 O31         53.3170    41.3940    35.4500 os         1 NN5      -0.454000
     16 C32         53.0730    41.3750    34.0180 c6         1 NN5       0.142600
     17 C33         51.5700    41.1950    33.6720 c6         1 NN5       0.067000
     18 N28         51.0050    39.9420    34.2630 n          1 NN5      -0.412800
     19 O27         48.9570    40.2590    33.2850 o          1 NN5      -0.598100
     20 C23         49.2200    38.1590    34.3750 ca         1 NN5      -0.188600
     21 C25         49.6280    35.7910    34.8300 ca         1 NN5      -0.176000
     22 C3          46.7640    33.7770    36.0520 cd         1 NN5       0.766200
     23 N4          46.7060    32.4060    36.1730 nd         1 NN5      -0.452300
     24 N2          45.7750    34.4830    36.5580 nc         1 NN5      -0.652100
     25 C9          43.7970    33.6560    37.6630 cc         1 NN5      -0.064000
     26 C11         40.9020    31.5510    38.8830 ca         1 NN5      -0.063500
     27 C12         39.6740    31.6720    39.5610 ca         1 NN5      -0.133300
     28 C18         38.7310    30.4730    39.6310 c3         1 NN5      -0.043300
     29 O17         38.1330    33.0170    40.8180 oh         1 NN5      -0.535100
     30 C14         40.2030    34.0000    40.0760 ca         1 NN5      -0.133300
     31 C16         39.8570    35.3430    40.7190 c3         1 NN5      -0.043300
     32 H1          45.3580    30.0890    37.0430 ha         1 NN5       0.149000
     33 H2          43.2040    30.2800    38.1990 ha         1 NN5       0.129000
     34 H3          42.0950    34.7150    39.3660 ha         1 NN5       0.114500
     35 H4          46.3240    36.5460    35.2020 ha         1 NN5       0.132000
     36 H5          47.1440    38.7680    34.5560 ha         1 NN5       0.123000
     37 H6          51.1540    37.1720    34.1980 ha         1 NN5       0.123000
     38 H8          52.4820    38.7480    35.2390 h1         1 NN5       0.060200
     39 H9          51.5780    41.3600    36.5910 h1         1 NN5       0.051450
     40 H10         52.8750    40.2960    37.1690 h1         1 NN5       0.051450
     41 H11         53.6410    40.5430    33.5790 h1         1 NN5       0.051450
     42 H12         53.4550    42.3070    33.5780 h1         1 NN5       0.051450
     43 H13         51.4570    41.1630    32.5790 h1         1 NN5       0.060200
     44 H14         51.0030    42.0620    34.0390 h1         1 NN5       0.060200
     45 H15         50.3260    34.9610    34.8860 ha         1 NN5       0.132000
     46 H17         43.4760    34.6810    37.7700 h4         1 NN5       0.165000
     47 H18         41.1280    30.6040    38.4040 ha         1 NN5       0.114500
     48 H19         38.5310    30.1900    40.6720 hc         1 NN5       0.044867
     49 H20         37.7700    30.7010    39.1550 hc         1 NN5       0.044867
     50 H21         39.1460    29.5920    39.1270 hc         1 NN5       0.044867
     51 H22         38.0640    33.9310    41.1640 ho         1 NN5       0.468000
     52 H23         38.9330    35.7580    40.2980 hc         1 NN5       0.044867
     53 H24         39.7240    35.2410    41.8030 hc         1 NN5       0.044867
     54 H25         40.6450    36.0880    40.5600 hc         1 NN5       0.044867
     55 N19         47.8630    34.3060    35.4880 nu         1 NN5      -0.884200
     56 C26         49.6870    39.5360    33.9540 c          1 NN5       0.621700
     57 H7          50.9950    38.9870    36.1810 h1         1 NN5       0.060200
     58 H16         48.5500    33.5770    35.3350 hn         1 NN5       0.514000
@<TRIPOS>BOND
     1     1     2 1   
     2     1    24 1   
     3     1    25 1   
     4     2     3 1   
     5     2    23 2   
     6     3     4 2   
     7     3    32 1   
     8     4     5 1   
     9     4    33 1   
    10     5     6 1   
    11     5    25 2   
    12     6     8 ar  
    13     6    26 ar  
    14     7    27 ar  
    15     7    29 1   
    16     7    30 ar  
    17     8    30 ar  
    18     8    34 1   
    19     9    10 ar  
    20     9    21 ar  
    21     9    55 1   
    22    10    11 ar  
    23    10    35 1   
    24    11    20 ar  
    25    11    36 1   
    26    12    20 ar  
    27    12    21 ar  
    28    12    37 1   
    29    13    14 1   
    30    13    18 1   
    31    13    38 1   
    32    13    57 1   
    33    14    15 1   
    34    14    39 1   
    35    14    40 1   
    36    15    16 1   
    37    16    17 1   
    38    16    41 1   
    39    16    42 1   
    40    17    18 1   
    41    17    43 1   
    42    17    44 1   
    43    18    56 1   
    44    19    56 2   
    45    20    56 1   
    46    21    45 1   
    47    22    23 1   
    48    22    24 2   
    49    22    55 1   
    50    25    46 1   
    51    26    27 ar  
    52    26    47 1   
    53    27    28 1   
    54    28    48 1   
    55    28    49 1   
    56    28    50 1   
    57    29    51 1   
    58    30    31 1   
    59    31    52 1   
    60    31    53 1   
    61    31    54 1   
    62    55    58 1   
@<TRIPOS>SUBSTRUCTURE
     1 NN5         1 TEMP              0 ****  ****    0 ROOT
