@<TRIPOS>MOLECULE
NN5
   58    62     1     0     0
SMALL
bcc


@<TRIPOS>ATOM
      1 N1          45.1760    33.3910    37.1970 na         1 NN5       0.203000
      2 C5          45.7890    32.1720    37.1210 cc         1 NN5       0.021700
      3 C6          45.1000    31.0540    37.6170 cc         1 NN5      -0.127000
      4 C7          43.8550    31.2400    38.1510 cd         1 NN5      -0.082000
      5 C8          43.2490    32.5230    38.2110 cd         1 NN5      -0.073000
      6 C10         41.9070    32.7110    38.7910 ca         1 NN5      -0.068000
      7 C13         39.3560    33.0720    39.8600 ca         1 NN5       0.149100
      8 C15         41.5910    33.8560    39.5160 ca         1 NN5      -0.081500
      9 C20         48.4210    35.4710    35.3570 ca         1 NN5       0.209600
     10 C21         47.5590    36.5520    35.5710 ca         1 NN5      -0.194000
     11 C22         47.9350    37.8230    35.1710 ca         1 NN5      -0.055000
     12 C24         50.0250    36.9880    34.3700 ca         1 NN5      -0.055000
     13 C29         51.6950    39.3760    35.2850 c6         1 NN5       0.067000
     14 C30         52.3870    40.5170    36.0060 c6         1 NN5       0.119400
     15 O31         53.1130    41.3590    35.1330 os         1 NN5      -0.407600
     16 C32         52.5910    41.4140    33.8200 c6         1 NN5       0.119400
     17 C33         51.0900    41.2190    33.7660 c6         1 NN5       0.067000
     18 N28         50.7440    39.9160    34.3200 n          1 NN5      -0.479800
     19 O27         48.6380    40.1240    33.5570 o          1 NN5      -0.598100
     20 C23         49.1730    38.0710    34.5870 ca         1 NN5      -0.188600
     21 C25         49.6560    35.7110    34.7400 ca         1 NN5      -0.194000
     22 C3          47.0310    33.6410    36.3060 cd         1 NN5       0.766200
     23 N4          46.9790    32.3210    36.5540 nd         1 NN5      -0.452300
     24 N2          45.9680    34.3420    36.6720 nc         1 NN5      -0.652100
     25 C9          43.9450    33.5910    37.7110 cc         1 NN5      -0.031300
     26 C11         40.9150    31.7470    38.6220 ca         1 NN5      -0.081500
     27 C12         39.6410    31.9050    39.1450 ca         1 NN5      -0.133300
     28 C18         38.5830    30.8600    38.9480 c3         1 NN5      -0.043300
     29 O17         38.1040    33.1910    40.3520 oh         1 NN5      -0.496100
     30 C14         40.3270    34.0590    40.0540 ca         1 NN5      -0.133300
     31 C16         40.0100    35.3010    40.8380 c3         1 NN5      -0.043300
     32 H1          45.5620    30.0790    37.5750 ha         1 NN5       0.167000
     33 H2          43.3250    30.3880    38.5540 ha         1 NN5       0.147000
     34 H3          42.3510    34.6110    39.6900 ha         1 NN5       0.132500
     35 H4          46.5990    36.4070    36.0400 ha         1 NN5       0.150000
     36 H5          47.2450    38.6410    35.3360 ha         1 NN5       0.141000
     37 H6          50.9830    37.1300    33.8870 ha         1 NN5       0.141000
     38 H8          52.4360    38.7340    34.7990 h1         1 NN5       0.060200
     39 H9          51.6400    41.0940    36.5660 h1         1 NN5       0.051450
     40 H10         53.0880    40.1000    36.7320 h1         1 NN5       0.051450
     41 H11         53.0760    40.6650    33.1800 h1         1 NN5       0.051450
     42 H12         52.8340    42.3940    33.4070 h1         1 NN5       0.051450
     43 H13         50.7720    41.2780    32.7240 h1         1 NN5       0.060200
     44 H14         50.5790    42.0240    34.3050 h1         1 NN5       0.060200
     45 H15         50.3310    34.8860    34.5470 ha         1 NN5       0.150000
     46 H17         43.5740    34.6050    37.6800 h4         1 NN5       0.183000
     47 H18         41.1290    30.8510    38.0490 ha         1 NN5       0.132500
     48 H19         38.2050    30.4820    39.9000 hc         1 NN5       0.044867
     49 H20         37.7250    31.2490    38.3970 hc         1 NN5       0.044867
     50 H21         38.9760    30.0120    38.3880 hc         1 NN5       0.044867
     51 H22         37.9960    34.0180    40.8340 ho         1 NN5       0.429000
     52 H23         39.2210    35.8930    40.3660 hc         1 NN5       0.044867
     53 H24         39.6850    35.0750    41.8570 hc         1 NN5       0.044867
     54 H25         40.8860    35.9420    40.9160 hc         1 NN5       0.044867
     55 N19         48.1360    34.1670    35.7110 nu         1 NN5      -0.690600
     56 C26         49.4920    39.4500    34.1230 c          1 NN5       0.688700
     57 H7          51.1780    38.7690    36.0270 h1         1 NN5       0.060200
     58 H16         48.8440    33.4820    35.4970 hn         1 NN5       0.458800
@<TRIPOS>BOND
     1     1     2 1   
     2     1    24 1   
     3     1    25 1   
     4     2     3 1   
     5     2    23 2   
     6     3     4 2   
     7     3    32 1   
     8     4     5 1   
     9     4    33 1   
    10     5     6 1   
    11     5    25 2   
    12     6     8 ar  
    13     6    26 ar  
    14     7    27 ar  
    15     7    29 1   
    16     7    30 ar  
    17     8    30 ar  
    18     8    34 1   
    19     9    10 ar  
    20     9    21 ar  
    21     9    55 1   
    22    10    11 ar  
    23    10    35 1   
    24    11    20 ar  
    25    11    36 1   
    26    12    20 ar  
    27    12    21 ar  
    28    12    37 1   
    29    13    14 1   
    30    13    18 1   
    31    13    38 1   
    32    13    57 1   
    33    14    15 1   
    34    14    39 1   
    35    14    40 1   
    36    15    16 1   
    37    16    17 1   
    38    16    41 1   
    39    16    42 1   
    40    17    18 1   
    41    17    43 1   
    42    17    44 1   
    43    18    56 1   
    44    19    56 2   
    45    20    56 1   
    46    21    45 1   
    47    22    23 1   
    48    22    24 2   
    49    22    55 1   
    50    25    46 1   
    51    26    27 ar  
    52    26    47 1   
    53    27    28 1   
    54    28    48 1   
    55    28    49 1   
    56    28    50 1   
    57    29    51 1   
    58    30    31 1   
    59    31    52 1   
    60    31    53 1   
    61    31    54 1   
    62    55    58 1   
@<TRIPOS>SUBSTRUCTURE
     1 NN5         1 TEMP              0 ****  ****    0 ROOT
