@<TRIPOS>MOLECULE
NN6
   40    42     1     0     0
SMALL
No Charge or Current Charge


@<TRIPOS>ATOM
      1 C10        -18.0250    11.6610     6.4170 ca         1 NN6      -0.110300
      2 C11        -18.6910    11.9690     5.2130 ca         1 NN6       0.179000
      3 C02        -15.5240     7.6100     9.1390 c2         1 NN6       0.942100
      4 C05        -16.5150     9.5190     9.5620 c          1 NN6       0.775500
      5 C08        -15.8770    11.1830     7.7180 c6         1 NN6       0.107000
      6 C09        -16.6060    11.0710     6.3680 c6         1 NN6      -0.055100
      7 C13        -19.9900    12.4910     5.2260 ca         1 NN6      -0.154000
      8 C14        -20.6390    12.7100     6.4480 ca         1 NN6      -0.062000
      9 C15        -20.0000    12.4120     7.6730 cp         1 NN6      -0.047000
     10 C16        -20.7270    12.6600     8.9530 cp         1 NN6      -0.143000
     11 C17        -21.8310    11.8560     9.3290 ca         1 NN6       0.239500
     12 C19        -22.5190    12.0850    10.5290 ca         1 NN6      -0.222500
     13 C20        -22.1160    13.1270    11.3720 ca         1 NN6       0.231000
     14 C22        -21.0340    13.9420    11.0230 ca         1 NN6      -0.222500
     15 C23        -20.3480    13.7110     9.8230 ca         1 NN6       0.239500
     16 C25        -18.6830    11.8720     7.6590 ca         1 NN6      -0.045300
     17 C26        -17.9750    11.4980     8.9790 c6         1 NN6       0.133300
     18 F12        -18.0840    11.7580     4.0220 f          1 NN6      -0.181000
     19 F18        -22.2330    10.8410     8.5330 f          1 NN6      -0.158500
     20 F21        -22.7780    13.3490    12.5270 f          1 NN6      -0.165000
     21 F24        -19.3150    14.5210     9.4990 f          1 NN6      -0.158500
     22 N01        -15.1450     7.3150     7.9660 nv         1 NN6      -1.080700
     23 N03        -14.4740     7.1080     9.6620 nv         1 NN6      -1.080700
     24 N04        -15.3730     8.8310     9.2280 ne         1 NN6      -0.874100
     25 N07        -16.7540    10.6770     8.8000 n          1 NN6      -0.377800
     26 O06        -17.2590     9.1630    10.4610 o          1 NN6      -0.704100
     27 H1         -14.9160    10.6550     7.6690 h1         1 NN6       0.061200
     28 H2         -15.6480    12.2400     7.9160 h1         1 NN6       0.061200
     29 H3         -16.6670    10.0140     6.0760 hc         1 NN6       0.064700
     30 H4         -16.0070    11.5740     5.5970 hc         1 NN6       0.064700
     31 H5         -20.4910    12.7230     4.2910 ha         1 NN6       0.134000
     32 H6         -21.6470    13.1180     6.4540 ha         1 NN6       0.120000
     33 H7         -23.3600    11.4560    10.8030 ha         1 NN6       0.156000
     34 H8         -20.7290    14.7530    11.6770 ha         1 NN6       0.156000
     35 H9         -17.7000    12.4200     9.5090 h1         1 NN6       0.075700
     36 H10        -18.6950    10.9660     9.6160 h1         1 NN6       0.075700
     37 H11        -14.3740     6.6830     8.0810 hn         1 NN6       0.506500
     38 H12        -14.7540     6.5360    10.4470 hn         1 NN6       0.506500
     39 H13        -13.9950     7.9300     9.9990 hn         1 NN6       0.506500
     40 H14        -14.8290     8.2020     7.6220 hn         1 NN6       0.506500
@<TRIPOS>BOND
     1     1     2 ar  
     2     1     6 1   
     3     1    16 ar  
     4     2     7 ar  
     5     2    18 1   
     6     3    22 1   
     7     3    23 1   
     8     3    24 2   
     9     4    24 1   
    10     4    25 1   
    11     4    26 2   
    12     5     6 1   
    13     5    25 1   
    14     5    27 1   
    15     5    28 1   
    16     6    29 1   
    17     6    30 1   
    18     7     8 ar  
    19     7    31 1   
    20     8     9 ar  
    21     8    32 1   
    22     9    10 1   
    23     9    16 ar  
    24    10    11 ar  
    25    10    15 ar  
    26    11    12 ar  
    27    11    19 1   
    28    12    13 ar  
    29    12    33 1   
    30    13    14 ar  
    31    13    20 1   
    32    14    15 ar  
    33    14    34 1   
    34    15    21 1   
    35    16    17 1   
    36    17    25 1   
    37    17    35 1   
    38    17    36 1   
    39    22    37 1   
    40    22    40 1   
    41    23    38 1   
    42    23    39 1   
@<TRIPOS>SUBSTRUCTURE
     1 NN6         1 TEMP              0 ****  ****    0 ROOT
