@<TRIPOS>MOLECULE
NN6
   40    42     1     0     0
SMALL
abcg2


@<TRIPOS>ATOM
      1 C10        -18.0140    11.7100     6.4410 ca         1 NN6      -0.110300
      2 C11        -18.7910    11.8660     5.3020 ca         1 NN6       0.179000
      3 C02        -15.1310     7.7960     8.9350 c2         1 NN6       0.942100
      4 C05        -16.5140     9.6640     9.1280 c          1 NN6       0.775500
      5 C08        -15.8410    11.5330     7.6450 c6         1 NN6       0.107000
      6 C09        -16.5600    11.3310     6.3220 c6         1 NN6      -0.055100
      7 C13        -20.1160    12.2400     5.3290 ca         1 NN6      -0.154000
      8 C14        -20.7000    12.4730     6.5630 ca         1 NN6      -0.062000
      9 C15        -19.9670    12.3200     7.7330 cp         1 NN6      -0.047000
     10 C16        -20.6420    12.5820     9.0250 cp         1 NN6      -0.143000
     11 C17        -21.5930    11.7140     9.5440 ca         1 NN6       0.239500
     12 C19        -22.2830    11.9460    10.7170 ca         1 NN6      -0.222500
     13 C20        -21.9960    13.1160    11.3930 ca         1 NN6       0.231000
     14 C22        -21.0610    14.0290    10.9470 ca         1 NN6      -0.222500
     15 C23        -20.4090    13.7320     9.7660 ca         1 NN6       0.239500
     16 C25        -18.6280    11.9210     7.6780 ca         1 NN6      -0.045300
     17 C26        -17.8390    11.7120     8.9550 c6         1 NN6       0.133300
     18 F12        -18.2120    11.6410     4.1110 f          1 NN6      -0.181000
     19 F18        -21.8580    10.5970     8.8650 f          1 NN6      -0.158500
     20 F21        -22.6570    13.3800    12.5220 f          1 NN6      -0.165000
     21 F24        -19.5140    14.6070     9.2990 f          1 NN6      -0.158500
     22 N01        -14.1050     7.2290     8.2780 nv         1 NN6      -1.080700
     23 N03        -15.7320     7.0670     9.8820 nv         1 NN6      -1.080700
     24 N04        -15.4490     9.0270     8.5810 ne         1 NN6      -0.874100
     25 N07        -16.6260    10.9720     8.7210 n          1 NN6      -0.377800
     26 O06        -17.3350     9.1990     9.9300 o          1 NN6      -0.704100
     27 H1         -14.8530    11.0840     7.6220 h1         1 NN6       0.061200
     28 H2         -15.7150    12.6010     7.8440 h1         1 NN6       0.061200
     29 H3         -16.4690    10.2850     6.0140 hc         1 NN6       0.064700
     30 H4         -16.0770    11.9270     5.5450 hc         1 NN6       0.064700
     31 H5         -20.6780    12.3520     4.4110 ha         1 NN6       0.134000
     32 H6         -21.7360    12.7800     6.6140 ha         1 NN6       0.120000
     33 H7         -23.0190    11.2430    11.0860 ha         1 NN6       0.156000
     34 H8         -20.8540    14.9420    11.4900 ha         1 NN6       0.156000
     35 H9         -17.5860    12.6870     9.3870 h1         1 NN6       0.075700
     36 H10        -18.4480    11.1930     9.6910 h1         1 NN6       0.075700
     37 H11        -13.7060     6.3530     8.5680 hn         1 NN6       0.506500
     38 H12        -15.4810     6.1070    10.0440 hn         1 NN6       0.506500
     39 H13        -16.5710     7.4440    10.2940 hn         1 NN6       0.506500
     40 H14        -13.5620     7.8060     7.6600 hn         1 NN6       0.506500
@<TRIPOS>BOND
     1     1     2 ar  
     2     1     6 1   
     3     1    16 ar  
     4     2     7 ar  
     5     2    18 1   
     6     3    22 1   
     7     3    23 1   
     8     3    24 2   
     9     4    24 1   
    10     4    25 1   
    11     4    26 2   
    12     5     6 1   
    13     5    25 1   
    14     5    27 1   
    15     5    28 1   
    16     6    29 1   
    17     6    30 1   
    18     7     8 ar  
    19     7    31 1   
    20     8     9 ar  
    21     8    32 1   
    22     9    10 1   
    23     9    16 ar  
    24    10    11 ar  
    25    10    15 ar  
    26    11    12 ar  
    27    11    19 1   
    28    12    13 ar  
    29    12    33 1   
    30    13    14 ar  
    31    13    20 1   
    32    14    15 ar  
    33    14    34 1   
    34    15    21 1   
    35    16    17 1   
    36    17    25 1   
    37    17    35 1   
    38    17    36 1   
    39    22    37 1   
    40    22    40 1   
    41    23    38 1   
    42    23    39 1   
@<TRIPOS>SUBSTRUCTURE
     1 NN6         1 TEMP              0 ****  ****    0 ROOT
