@<TRIPOS>MOLECULE
NN7
   60    63     1     0     0
SMALL
abcg2


@<TRIPOS>ATOM
      1 C1           4.7790     3.2150     0.4350 c3         1 NN7      -0.124100
      2 C2           3.5770     2.2890     0.5610 c3         1 NN7       0.194500
      3 C4           2.4270     2.9900     1.2870 c3         1 NN7       0.228800
      4 N5           1.2890     2.1510     1.5310 nu         1 NN7      -0.957200
      5 C6           0.1800     2.0600     0.7520 ca         1 NN7       0.427000
      6 C7          -0.1150     2.9080    -0.3140 ca         1 NN7      -0.244000
      7 C8          -1.2930     2.7570    -1.0570 ca         1 NN7      -0.022000
      8 C9          -2.2380     1.7860    -0.8010 ca         1 NN7      -0.198000
      9 C10         -1.9540     0.9420     0.2790 ca         1 NN7       0.022800
     10 N11         -2.6260    -0.1260     0.8050 na         1 NN7       0.156800
     11 N12         -1.9580    -0.6770     1.8390 nc         1 NN7      -0.528100
     12 C13         -0.8650     0.0180     1.9940 cd         1 NN7       0.374800
     13 C14         -0.7840     1.0650     1.0410 ca         1 NN7      -0.303900
     14 C15         -3.8400    -0.6920     0.3830 ca         1 NN7       0.017800
     15 C16         -3.9770    -2.0760     0.3490 ca         1 NN7      -0.090000
     16 C17         -5.1720    -2.6490    -0.0530 ca         1 NN7      -0.139500
     17 C18         -6.2130    -1.8220    -0.4330 ca         1 NN7       0.165000
     18 F19         -7.3700    -2.3740    -0.8310 f          1 NN7      -0.176000
     19 C20         -6.1000    -0.4470    -0.4100 ca         1 NN7      -0.139500
     20 C21         -4.9070     0.1200     0.0140 ca         1 NN7      -0.090000
     21 N22          3.1210     1.7880    -0.7340 n7         1 NN7      -0.891300
     22 S23          3.7180     0.3540    -1.2940 sy         1 NN7       1.142600
     23 O24          3.4160     0.3160    -2.7180 o          1 NN7      -0.550500
     24 O25          5.1170     0.1790    -0.9250 o          1 NN7      -0.550500
     25 C26          2.7210    -0.8380    -0.4180 ca         1 NN7      -0.261500
     26 C27          3.2460    -1.5870     0.6490 ca         1 NN7       0.031200
     27 C28          4.6500    -1.5220     1.1950 c3         1 NN7      -0.066800
     28 C29          2.3930    -2.4910     1.2820 ca         1 NN7      -0.148000
     29 C30          1.0770    -2.6800     0.8940 ca         1 NN7      -0.011300
     30 C31          0.1870    -3.6600     1.5950 c3         1 NN7      -0.060800
     31 C32          0.5970    -1.9210    -0.1630 ca         1 NN7      -0.148000
     32 C33          1.3800    -0.9880    -0.8270 ca         1 NN7       0.031200
     33 C34          0.7160    -0.2070    -1.9260 c3         1 NN7      -0.066800
     34 H11C         4.5250     4.0950    -0.1600 hc         1 NN7       0.052367
     35 H12C         5.1070     3.5580     1.4160 hc         1 NN7       0.052367
     36 H13C         5.6140     2.7070    -0.0430 hc         1 NN7       0.052367
     37 H2           3.8580     1.4240     1.1690 h1         1 NN7       0.060700
     38 H41C         2.8090     3.3450     2.2470 h1         1 NN7       0.056200
     39 H42C         2.1240     3.8810     0.7370 h1         1 NN7       0.056200
     40 H22          3.0780     2.4840    -1.4710 hn         1 NN7       0.489000
     41 H5           1.4230     1.4280     2.2170 hn         1 NN7       0.484000
     42 H7           0.5750     3.6870    -0.6070 ha         1 NN7       0.113000
     43 H8          -1.4570     3.4390    -1.8830 ha         1 NN7       0.109000
     44 H9          -3.1250     1.6890    -1.4110 ha         1 NN7       0.126000
     45 H13         -0.1680    -0.2460     2.7750 h4         1 NN7       0.043800
     46 H16         -3.1490    -2.7110     0.6350 ha         1 NN7       0.133500
     47 H21         -4.8240     1.1970     0.0700 ha         1 NN7       0.133500
     48 H17         -5.2850    -3.7240    -0.0810 ha         1 NN7       0.136000
     49 H20         -6.9330     0.1800    -0.6980 ha         1 NN7       0.136000
     50 H281         4.9460    -0.5220     1.5040 hc         1 NN7       0.059533
     51 H282         4.7170    -2.1660     2.0700 hc         1 NN7       0.059533
     52 H283         5.3860    -1.8710     0.4730 hc         1 NN7       0.059533
     53 H29          2.7840    -3.0630     2.1150 ha         1 NN7       0.115000
     54 H311        -0.7740    -3.2030     1.8370 hc         1 NN7       0.050700
     55 H312        -0.0150    -4.5270     0.9650 hc         1 NN7       0.050700
     56 H313         0.6340    -4.0180     2.5210 hc         1 NN7       0.050700
     57 H32         -0.4350    -2.0400    -0.4740 ha         1 NN7       0.115000
     58 H341         1.0400    -0.5370    -2.9110 hc         1 NN7       0.059533
     59 H342        -0.3610    -0.3460    -1.8640 hc         1 NN7       0.059533
     60 H343         0.9030     0.8610    -1.8470 hc         1 NN7       0.059533
@<TRIPOS>BOND
     1     1     2 1   
     2     1    34 1   
     3     1    35 1   
     4     1    36 1   
     5     2     3 1   
     6     2    21 1   
     7     2    37 1   
     8     3     4 1   
     9     3    38 1   
    10     3    39 1   
    11     4     5 1   
    12     4    41 1   
    13     5     6 ar  
    14     5    13 ar  
    15     6     7 ar  
    16     6    42 1   
    17     7     8 ar  
    18     7    43 1   
    19     8     9 ar  
    20     8    44 1   
    21     9    10 1   
    22     9    13 ar  
    23    10    11 1   
    24    10    14 1   
    25    11    12 2   
    26    12    13 1   
    27    12    45 1   
    28    14    15 ar  
    29    14    20 ar  
    30    15    16 ar  
    31    15    46 1   
    32    16    17 ar  
    33    16    48 1   
    34    17    18 1   
    35    17    19 ar  
    36    19    20 ar  
    37    19    49 1   
    38    20    47 1   
    39    21    22 1   
    40    21    40 1   
    41    22    23 2   
    42    22    24 2   
    43    22    25 1   
    44    25    26 ar  
    45    25    32 ar  
    46    26    27 1   
    47    26    28 ar  
    48    27    50 1   
    49    27    51 1   
    50    27    52 1   
    51    28    29 ar  
    52    28    53 1   
    53    29    30 1   
    54    29    31 ar  
    55    30    54 1   
    56    30    55 1   
    57    30    56 1   
    58    31    32 ar  
    59    31    57 1   
    60    32    33 1   
    61    33    58 1   
    62    33    59 1   
    63    33    60 1   
@<TRIPOS>SUBSTRUCTURE
     1 NN7         1 TEMP              0 ****  ****    0 ROOT
