@<TRIPOS>MOLECULE
NN7
   60    63     1     0     0
SMALL
No Charge or Current Charge


@<TRIPOS>ATOM
      1 C1           4.8760     3.0230     0.5730 c3         1 NN7      -0.124100
      2 C2           3.5320     2.2580     0.5990 c3         1 NN7       0.194500
      3 C4           2.4260     3.1520     1.2590 c3         1 NN7       0.228800
      4 N5           1.1670     2.4360     1.5860 nu         1 NN7      -0.957200
      5 C6           0.1010     2.1780     0.7320 ca         1 NN7       0.427000
      6 C7          -0.1750     2.9740    -0.4000 ca         1 NN7      -0.244000
      7 C8          -1.3080     2.7140    -1.2100 ca         1 NN7      -0.022000
      8 C9          -2.1850     1.6600    -0.8810 ca         1 NN7      -0.198000
      9 C10         -1.8870     0.9010     0.2570 ca         1 NN7       0.022800
     10 N11         -2.5440    -0.1670     0.8340 na         1 NN7       0.156800
     11 N12         -1.9120    -0.6210     1.9910 nc         1 NN7      -0.528100
     12 C13         -0.8340     0.1760     2.0900 cd         1 NN7       0.374800
     13 C14         -0.7940     1.1500     1.0220 ca         1 NN7      -0.303900
     14 C15         -3.7540    -0.7250     0.4230 ca         1 NN7       0.017800
     15 C16         -3.8250    -2.0880     0.0680 ca         1 NN7      -0.090000
     16 C17         -5.0460    -2.6470    -0.3520 ca         1 NN7      -0.139500
     17 C18         -6.1960    -1.8460    -0.4170 ca         1 NN7       0.165000
     18 F19         -7.3670    -2.3840    -0.8210 f          1 NN7      -0.176000
     19 C20         -6.1360    -0.4890    -0.0640 ca         1 NN7      -0.139500
     20 C21         -4.9160     0.0720     0.3570 ca         1 NN7      -0.090000
     21 N22          3.1620     1.8300    -0.7740 n7         1 NN7      -0.891300
     22 S23          3.7280     0.3750    -1.3790 sy         1 NN7       1.142600
     23 O24          3.3420     0.4070    -2.7910 o          1 NN7      -0.550500
     24 O25          5.1390     0.2900    -1.0040 o          1 NN7      -0.550500
     25 C26          2.6770    -0.8300    -0.4750 ca         1 NN7      -0.261500
     26 C27          3.1820    -1.5930     0.6270 ca         1 NN7       0.031200
     27 C28          4.6160    -1.5080     1.1510 c3         1 NN7      -0.066800
     28 C29          2.3380    -2.5050     1.2920 ca         1 NN7      -0.148000
     29 C30          1.0100    -2.6910     0.9000 ca         1 NN7      -0.011300
     30 C31          0.1260    -3.6870     1.6330 c3         1 NN7      -0.060800
     31 C32          0.5110    -1.9540    -0.1780 ca         1 NN7      -0.148000
     32 C33          1.3130    -1.0230    -0.8630 ca         1 NN7       0.031200
     33 C34          0.6370    -0.2720    -2.0110 c3         1 NN7      -0.066800
     34 H11C         4.8110     3.9090    -0.0700 hc         1 NN7       0.052367
     35 H12C         5.1420     3.3590     1.5830 hc         1 NN7       0.052367
     36 H13C         5.7020     2.4000     0.2170 hc         1 NN7       0.052367
     37 H2           3.6450     1.3820     1.2520 h1         1 NN7       0.060700
     38 H41C         2.8440     3.5380     2.1990 h1         1 NN7       0.056200
     39 H42C         2.2320     4.0290     0.6280 h1         1 NN7       0.056200
     40 H22          3.5320     2.4910    -1.4510 hn         1 NN7       0.489000
     41 H5           1.2100     1.8190     2.3950 hn         1 NN7       0.484000
     42 H7           0.4790     3.7980    -0.6630 ha         1 NN7       0.113000
     43 H8          -1.5050     3.3320    -2.0830 ha         1 NN7       0.109000
     44 H9          -3.0610     1.4480    -1.4910 ha         1 NN7       0.126000
     45 H13         -0.1480     0.0260     2.9140 h4         1 NN7       0.043800
     46 H16         -2.9350    -2.7100     0.1180 ha         1 NN7       0.133500
     47 H21         -4.8720     1.1240     0.6320 ha         1 NN7       0.133500
     48 H17         -5.1010    -3.6980    -0.6270 ha         1 NN7       0.136000
     49 H20         -7.0320     0.1240    -0.1160 ha         1 NN7       0.136000
     50 H281         4.8870    -0.4890     1.4460 hc         1 NN7       0.059533
     51 H282         4.7650    -2.1330     2.0400 hc         1 NN7       0.059533
     52 H283         5.3340    -1.8620     0.4020 hc         1 NN7       0.059533
     53 H29          2.7210    -3.0870     2.1270 ha         1 NN7       0.115000
     54 H311        -0.9380    -3.4620     1.4960 hc         1 NN7       0.050700
     55 H312         0.3020    -4.7060     1.2690 hc         1 NN7       0.050700
     56 H313         0.3260    -3.6770     2.7110 hc         1 NN7       0.050700
     57 H32         -0.5210    -2.1040    -0.4840 ha         1 NN7       0.115000
     58 H341         0.9750    -0.6480    -2.9830 hc         1 NN7       0.059533
     59 H342        -0.4520    -0.3930    -1.9900 hc         1 NN7       0.059533
     60 H343         0.8280     0.8040    -1.9670 hc         1 NN7       0.059533
@<TRIPOS>BOND
     1     1     2 1   
     2     1    34 1   
     3     1    35 1   
     4     1    36 1   
     5     2     3 1   
     6     2    21 1   
     7     2    37 1   
     8     3     4 1   
     9     3    38 1   
    10     3    39 1   
    11     4     5 1   
    12     4    41 1   
    13     5     6 ar  
    14     5    13 ar  
    15     6     7 ar  
    16     6    42 1   
    17     7     8 ar  
    18     7    43 1   
    19     8     9 ar  
    20     8    44 1   
    21     9    10 1   
    22     9    13 ar  
    23    10    11 1   
    24    10    14 1   
    25    11    12 2   
    26    12    13 1   
    27    12    45 1   
    28    14    15 ar  
    29    14    20 ar  
    30    15    16 ar  
    31    15    46 1   
    32    16    17 ar  
    33    16    48 1   
    34    17    18 1   
    35    17    19 ar  
    36    19    20 ar  
    37    19    49 1   
    38    20    47 1   
    39    21    22 1   
    40    21    40 1   
    41    22    23 2   
    42    22    24 2   
    43    22    25 1   
    44    25    26 ar  
    45    25    32 ar  
    46    26    27 1   
    47    26    28 ar  
    48    27    50 1   
    49    27    51 1   
    50    27    52 1   
    51    28    29 ar  
    52    28    53 1   
    53    29    30 1   
    54    29    31 ar  
    55    30    54 1   
    56    30    55 1   
    57    30    56 1   
    58    31    32 ar  
    59    31    57 1   
    60    32    33 1   
    61    33    58 1   
    62    33    59 1   
    63    33    60 1   
@<TRIPOS>SUBSTRUCTURE
     1 NN7         1 TEMP              0 ****  ****    0 ROOT
