@<TRIPOS>MOLECULE
NN8
   52    55     1     0     0
SMALL
No Charge or Current Charge


@<TRIPOS>ATOM
      1 C4          31.7100   -32.5450     7.6100 ca         1 NN8      -0.066300
      2 C14         30.8140   -32.3830    12.4100 ca         1 NN8       0.354900
      3 C5          30.8060   -32.5250     8.6940 ca         1 NN8      -0.089300
      4 C6          29.5890   -31.8260     8.5720 ca         1 NN8      -0.161000
      5 C11         32.1630   -31.0420    10.9140 ca         1 NN8      -0.060000
      6 C7          29.2640   -31.1490     7.3750 ca         1 NN8       0.116100
      7 C8          27.0980   -30.3610     8.2830 c3         1 NN8       0.143900
      8 C9          31.1340   -33.2280    10.0230 c6         1 NN8       0.208300
      9 C10         31.3910   -32.2000    11.1370 ca         1 NN8      -0.162300
     10 C12         32.3360   -30.1400    11.9750 ca         1 NN8      -0.172000
     11 C13         31.7310   -30.4110    13.2130 ca         1 NN8       0.340900
     12 N1          30.9760   -31.5110    13.4350 nb         1 NN8      -0.668000
     13 N2          32.2340   -34.2250     9.8940 n          1 NN8      -0.384800
     14 C3          31.3880   -31.8780     6.4140 ca         1 NN8      -0.175000
     15 C1          30.6850   -30.4800     3.9690 c3         1 NN8       0.144900
     16 C2          30.1690   -31.1760     6.2890 ca         1 NN8       0.121100
     17 O2          28.0740   -30.4510     7.2310 os         1 NN8      -0.319100
     18 C15         32.3530   -35.2780    10.8230 c          1 NN8       0.644700
     19 O3          31.6730   -35.3020    11.8430 o          1 NN8      -0.657100
     20 C16         33.2620   -36.4450    10.5220 ca         1 NN8      -0.299600
     21 C17         33.5480   -36.8370     9.1940 ca         1 NN8      -0.004000
     22 C18         34.3940   -37.9290     8.9440 ca         1 NN8      -0.203000
     23 C19         34.9460   -38.6500    10.0080 ca         1 NN8       0.206100
     24 O4          35.7640   -39.7070     9.7550 oh         1 NN8      -0.526100
     25 C20         34.6390   -38.2980    11.3250 ca         1 NN8      -0.276000
     26 C21         33.7920   -37.2130    11.5790 ca         1 NN8       0.252100
     27 O5          33.4790   -36.9160    12.8650 oh         1 NN8      -0.543100
     28 C22         33.4070   -33.6970     9.1510 c6         1 NN8       0.101000
     29 C23         33.0290   -33.3130     7.7060 c6         1 NN8      -0.043100
     30 H13         30.1890   -33.2500    12.6190 h4         1 NN8       0.037100
     31 H5          28.9110   -31.8140     9.4210 ha         1 NN8       0.126000
     32 H10         32.6130   -30.8380     9.9440 ha         1 NN8       0.125000
     33 H8          26.2390   -29.7620     7.9540 h1         1 NN8       0.042033
     34 H6          26.7300   -31.3570     8.5610 h1         1 NN8       0.042033
     35 H7          27.5250   -29.8810     9.1730 h1         1 NN8       0.042033
     36 H9          30.2270   -33.7890    10.2970 h1         1 NN8       0.097700
     37 H11         32.9250   -29.2360    11.8450 ha         1 NN8       0.123000
     38 H12         31.8490   -29.7250    14.0500 h4         1 NN8       0.019100
     39 H4          32.0970   -31.9180     5.5930 ha         1 NN8       0.119000
     40 H3          30.2200   -29.8960     3.1650 h1         1 NN8       0.040700
     41 H1          31.6500   -30.0170     4.2110 h1         1 NN8       0.040700
     42 H2          30.8640   -31.4950     3.5920 h1         1 NN8       0.040700
     43 H14         33.1050   -36.3130     8.3500 ha         1 NN8       0.117000
     44 H15         34.6160   -38.2190     7.9210 ha         1 NN8       0.134000
     45 H16         36.0450   -40.0860    10.6150 ho         1 NN8       0.472000
     46 H17         35.0440   -38.8650    12.1590 ha         1 NN8       0.134000
     47 H18         32.7270   -36.2710    12.8040 ho         1 NN8       0.516000
     48 H20         34.2430   -34.4090     9.1420 h1         1 NN8       0.060200
     49 H19         33.7820   -32.8060     9.6710 h1         1 NN8       0.060200
     50 H21         32.9450   -34.2250     7.1010 hc         1 NN8       0.055700
     51 H22         33.8440   -32.7250     7.2620 hc         1 NN8       0.055700
     52 O1          29.8270   -30.5080     5.1240 os         1 NN8      -0.318100
@<TRIPOS>BOND
     1     1     3 ar  
     2     1    14 ar  
     3     1    29 1   
     4     2     9 ar  
     5     2    12 ar  
     6     2    30 1   
     7     3     4 ar  
     8     3     8 1   
     9     4     6 ar  
    10     4    31 1   
    11     5     9 ar  
    12     5    10 ar  
    13     5    32 1   
    14     6    16 ar  
    15     6    17 1   
    16     7    17 1   
    17     7    33 1   
    18     7    34 1   
    19     7    35 1   
    20     8     9 1   
    21     8    13 1   
    22     8    36 1   
    23    10    11 ar  
    24    10    37 1   
    25    11    12 ar  
    26    11    38 1   
    27    13    18 1   
    28    13    28 1   
    29    14    16 ar  
    30    14    39 1   
    31    15    40 1   
    32    15    41 1   
    33    15    42 1   
    34    15    52 1   
    35    16    52 1   
    36    18    19 2   
    37    18    20 1   
    38    20    21 ar  
    39    20    26 ar  
    40    21    22 ar  
    41    21    43 1   
    42    22    23 ar  
    43    22    44 1   
    44    23    24 1   
    45    23    25 ar  
    46    24    45 1   
    47    25    26 ar  
    48    25    46 1   
    49    26    27 1   
    50    27    47 1   
    51    28    29 1   
    52    28    48 1   
    53    28    49 1   
    54    29    50 1   
    55    29    51 1   
@<TRIPOS>SUBSTRUCTURE
     1 NN8         1 TEMP              0 ****  ****    0 ROOT
