@<TRIPOS>MOLECULE
NN8
   52    55     1     0     0
SMALL
bcc


@<TRIPOS>ATOM
      1 C4          31.7430   -32.5850     7.7110 ca         1 NN8      -0.066300
      2 C14         31.2210   -32.3740    12.5110 ca         1 NN8       0.420200
      3 C5          30.8500   -32.5330     8.7640 ca         1 NN8      -0.089300
      4 C6          29.6290   -31.8660     8.6100 ca         1 NN8      -0.179000
      5 C11         32.0150   -30.8670    10.8560 ca         1 NN8      -0.078000
      6 C7          29.2920   -31.2560     7.4200 ca         1 NN8       0.116100
      7 C8          27.1920   -30.5240     8.2260 c3         1 NN8       0.120700
      8 C9          31.1480   -33.1520    10.1100 c6         1 NN8       0.208300
      9 C10         31.4680   -32.1060    11.1660 ca         1 NN8      -0.227600
     10 C12         32.3110   -29.9800    11.8800 ca         1 NN8      -0.255300
     11 C13         32.0320   -30.3570    13.1840 ca         1 NN8       0.406200
     12 N1          31.4910   -31.5290    13.4970 nb         1 NN8      -0.668000
     13 N2          32.2300   -34.1250     9.9790 n          1 NN8      -0.451800
     14 C3          31.4010   -31.9710     6.4990 ca         1 NN8      -0.193000
     15 C1          30.6730   -30.6990     4.1020 c3         1 NN8       0.121700
     16 C2          30.2000   -31.3110     6.3380 ca         1 NN8       0.121100
     17 O2          28.1420   -30.5990     7.1830 os         1 NN8      -0.295900
     18 C15         32.1550   -35.2940    10.6460 c          1 NN8       0.711700
     19 O3          31.2730   -35.4870    11.4960 o          1 NN8      -0.657100
     20 C16         33.1280   -36.3750    10.3780 ca         1 NN8      -0.299600
     21 C17         33.6600   -36.6450     9.1140 ca         1 NN8      -0.022000
     22 C18         34.5370   -37.6820     8.8890 ca         1 NN8      -0.221000
     23 C19         34.9110   -38.4960     9.9620 ca         1 NN8       0.206100
     24 O4          35.7810   -39.4860     9.7150 oh         1 NN8      -0.487100
     25 C20         34.3690   -38.2840    11.2220 ca         1 NN8      -0.294000
     26 C21         33.4550   -37.2550    11.4290 ca         1 NN8       0.252100
     27 O5          32.9240   -37.1410    12.6490 oh         1 NN8      -0.504100
     28 C22         33.3940   -33.5970     9.2850 c6         1 NN8       0.101000
     29 C23         33.0600   -33.3000     7.8360 c6         1 NN8      -0.043100
     30 H13         30.7800   -33.3220    12.7970 h4         1 NN8       0.037100
     31 H5          28.9480   -31.8400     9.4520 ha         1 NN8       0.144000
     32 H10         32.1980   -30.5860     9.8260 ha         1 NN8       0.143000
     33 H8          26.3420   -29.9720     7.8320 h1         1 NN8       0.042033
     34 H6          26.8530   -31.5140     8.5430 h1         1 NN8       0.042033
     35 H7          27.5820   -29.9910     9.0980 h1         1 NN8       0.042033
     36 H9          30.2600   -33.6930    10.4380 h1         1 NN8       0.097700
     37 H11         32.7420   -29.0110    11.6700 ha         1 NN8       0.141000
     38 H12         32.2470   -29.6850    14.0070 h4         1 NN8       0.019100
     39 H4          32.1110   -32.0220     5.6830 ha         1 NN8       0.137000
     40 H3          30.1720   -30.1450     3.3120 h1         1 NN8       0.040700
     41 H1          31.6220   -30.2070     4.3280 h1         1 NN8       0.040700
     42 H2          30.8770   -31.7120     3.7470 h1         1 NN8       0.040700
     43 H14         33.3600   -36.0420     8.2680 ha         1 NN8       0.135000
     44 H15         34.9250   -37.8720     7.8970 ha         1 NN8       0.152000
     45 H16         35.9570   -39.9930    10.5160 ho         1 NN8       0.433000
     46 H17         34.6240   -38.9360    12.0500 ha         1 NN8       0.152000
     47 H18         32.1610   -36.5300    12.5770 ho         1 NN8       0.477000
     48 H20         34.2370   -34.2750     9.3730 h1         1 NN8       0.060200
     49 H19         33.6950   -32.6760     9.7920 h1         1 NN8       0.060200
     50 H21         33.0280   -34.2260     7.2520 hc         1 NN8       0.055700
     51 H22         33.8610   -32.6990     7.4010 hc         1 NN8       0.055700
     52 O1          29.7990   -30.6930     5.2130 os         1 NN8      -0.294900
@<TRIPOS>BOND
     1     1     3 ar  
     2     1    14 ar  
     3     1    29 1   
     4     2     9 ar  
     5     2    12 ar  
     6     2    30 1   
     7     3     4 ar  
     8     3     8 1   
     9     4     6 ar  
    10     4    31 1   
    11     5     9 ar  
    12     5    10 ar  
    13     5    32 1   
    14     6    16 ar  
    15     6    17 1   
    16     7    17 1   
    17     7    33 1   
    18     7    34 1   
    19     7    35 1   
    20     8     9 1   
    21     8    13 1   
    22     8    36 1   
    23    10    11 ar  
    24    10    37 1   
    25    11    12 ar  
    26    11    38 1   
    27    13    18 1   
    28    13    28 1   
    29    14    16 ar  
    30    14    39 1   
    31    15    40 1   
    32    15    41 1   
    33    15    42 1   
    34    15    52 1   
    35    16    52 1   
    36    18    19 2   
    37    18    20 1   
    38    20    21 ar  
    39    20    26 ar  
    40    21    22 ar  
    41    21    43 1   
    42    22    23 ar  
    43    22    44 1   
    44    23    24 1   
    45    23    25 ar  
    46    24    45 1   
    47    25    26 ar  
    48    25    46 1   
    49    26    27 1   
    50    27    47 1   
    51    28    29 1   
    52    28    48 1   
    53    28    49 1   
    54    29    50 1   
    55    29    51 1   
@<TRIPOS>SUBSTRUCTURE
     1 NN8         1 TEMP              0 ****  ****    0 ROOT
