@<TRIPOS>MOLECULE
NN9
   35    36     1     0     0
SMALL
abcg2


@<TRIPOS>ATOM
      1 C1         -17.4190    44.6480   -12.4390 c3         1 NN9       0.195100
      2 C2         -18.0220    43.2810   -12.6340 ca         1 NN9      -0.085300
      3 C4         -19.3480    41.7470   -13.9400 ca         1 NN9      -0.114000
      4 C6         -18.3630    41.0030   -11.8700 ca         1 NN9      -0.123300
      5 C10        -21.4130    41.2250    -8.5030 ca         1 NN9       0.018000
      6 N1         -16.5840    45.0160   -13.5730 n8         1 NN9      -0.996200
      7 C3         -18.7910    43.0030   -13.7650 ca         1 NN9      -0.075000
      8 C5         -19.1360    40.7490   -12.9960 ca         1 NN9      -0.101000
      9 C7         -18.0880    39.8970   -10.8750 c3         1 NN9       0.283100
     10 N2         -18.0300    40.3250    -9.5030 nu         1 NN9      -0.937100
     11 C8         -19.0860    40.7660    -8.7900 ca         1 NN9       0.640900
     12 C9         -20.3980    40.7720    -9.3070 ca         1 NN9      -0.241000
     13 C11        -21.1450    41.6890    -7.2110 ca         1 NN9      -0.277600
     14 C12        -19.8180    41.6270    -6.8000 ca         1 NN9       0.419900
     15 N3         -18.8230    41.1860    -7.5480 nb         1 NN9      -0.770000
     16 C13        -22.2650    42.1670    -6.3630 c          1 NN9       0.631700
     17 N4         -21.9400    42.8990    -5.2800 nt         1 NN9      -0.606000
     18 O1         -23.4260    41.8940    -6.6400 o          1 NN9      -0.612100
     19 C14        -17.8160    42.2730   -11.7010 ca         1 NN9      -0.092000
     20 H3         -16.8970    44.6700   -11.4730 h1         1 NN9       0.035700
     21 H4         -18.2240    45.3850   -12.3660 h1         1 NN9       0.035700
     22 H6         -19.9560    41.5420   -14.8120 ha         1 NN9       0.116000
     23 H2         -16.2560    45.9660   -13.4520 hn         1 NN9       0.395500
     24 H1         -15.7550    44.4340   -13.5820 hn         1 NN9       0.395500
     25 H5         -18.9590    43.7760   -14.5050 ha         1 NN9       0.127000
     26 H7         -19.5790    39.7700   -13.1360 ha         1 NN9       0.110000
     27 H8         -18.8310    39.1030   -10.9960 h1         1 NN9       0.056700
     28 H9         -17.1230    39.4400   -11.1000 h1         1 NN9       0.056700
     29 H10        -17.1300    40.3980    -9.0570 hn         1 NN9       0.504000
     30 H11        -20.6120    40.4280   -10.3100 ha         1 NN9       0.131000
     31 H13        -19.5300    41.9320    -5.7980 h4         1 NN9       0.010100
     32 H15        -22.6770    43.2720    -4.7040 hn         1 NN9       0.309500
     33 H14        -21.0230    43.2850    -5.1390 hn         1 NN9       0.309500
     34 H16        -17.2140    42.4840   -10.8240 ha         1 NN9       0.111000
     35 H12        -22.4280    41.2330    -8.8790 ha         1 NN9       0.137000
@<TRIPOS>BOND
     1     1     2 1   
     2     1     6 1   
     3     1    20 1   
     4     1    21 1   
     5     2     7 ar  
     6     2    19 ar  
     7     3     7 ar  
     8     3     8 ar  
     9     3    22 1   
    10     4     8 ar  
    11     4     9 1   
    12     4    19 ar  
    13     5    12 ar  
    14     5    13 ar  
    15     5    35 1   
    16     6    23 1   
    17     6    24 1   
    18     7    25 1   
    19     8    26 1   
    20     9    10 1   
    21     9    27 1   
    22     9    28 1   
    23    10    11 1   
    24    10    29 1   
    25    11    12 ar  
    26    11    15 ar  
    27    12    30 1   
    28    13    14 ar  
    29    13    16 1   
    30    14    15 ar  
    31    14    31 1   
    32    16    17 1   
    33    16    18 2   
    34    17    32 1   
    35    17    33 1   
    36    19    34 1   
@<TRIPOS>SUBSTRUCTURE
     1 NN9         1 TEMP              0 ****  ****    0 ROOT
