@<TRIPOS>MOLECULE
NN9
   35    36     1     0     0
SMALL
No Charge or Current Charge


@<TRIPOS>ATOM
      1 C1         -17.0540    44.7010   -12.7170 c3         1 NN9       0.195100
      2 C2         -17.8960    43.4330   -12.6500 ca         1 NN9      -0.085300
      3 C4         -19.8640    42.1640   -13.3320 ca         1 NN9      -0.114000
      4 C6         -18.2790    41.1830   -11.7580 ca         1 NN9      -0.123300
      5 C10        -21.5190    40.6600    -8.4420 ca         1 NN9       0.018000
      6 N1         -16.1670    44.7010   -13.8940 n8         1 NN9      -0.996200
      7 C3         -19.0840    43.3310   -13.3990 ca         1 NN9      -0.075000
      8 C5         -19.4640    41.0930   -12.5160 ca         1 NN9      -0.101000
      9 C7         -17.8410    40.0240   -10.8680 c3         1 NN9       0.283100
     10 N2         -17.9880    40.3750    -9.4510 nu         1 NN9      -0.937100
     11 C8         -19.1460    40.7050    -8.8190 ca         1 NN9       0.640900
     12 C9         -20.4120    40.2510    -9.1960 ca         1 NN9      -0.241000
     13 C11        -21.2950    41.5030    -7.3350 ca         1 NN9      -0.277600
     14 C12        -19.9720    41.8840    -7.0440 ca         1 NN9       0.419900
     15 N3         -18.9070    41.4870    -7.7740 nb         1 NN9      -0.770000
     16 C13        -22.4420    41.9700    -6.4940 c          1 NN9       0.631700
     17 N4         -22.1880    42.7750    -5.4420 nt         1 NN9      -0.606000
     18 O1         -23.5940    41.6470    -6.7290 o          1 NN9      -0.612100
     19 C14        -17.4990    42.3550   -11.8330 ca         1 NN9      -0.092000
     20 H3         -16.4400    44.7880   -11.8090 h1         1 NN9       0.035700
     21 H4         -17.7120    45.5800   -12.7670 h1         1 NN9       0.035700
     22 H6         -20.7800    42.0900   -13.9150 ha         1 NN9       0.116000
     23 H2         -15.5550    45.5250   -13.8490 hn         1 NN9       0.395500
     24 H1         -15.5170    43.9110   -13.8140 hn         1 NN9       0.395500
     25 H5         -19.4000    44.1550   -14.0350 ha         1 NN9       0.127000
     26 H7         -20.0760    40.1950   -12.4740 ha         1 NN9       0.110000
     27 H8         -18.4330    39.1280   -11.1020 h1         1 NN9       0.056700
     28 H9         -16.7910    39.7840   -11.0870 h1         1 NN9       0.056700
     29 H10        -17.2070    40.8560    -9.0160 hn         1 NN9       0.504000
     30 H11        -20.5370    39.5950   -10.0500 ha         1 NN9       0.131000
     31 H13        -19.7390    42.5290    -6.1980 h4         1 NN9       0.010100
     32 H15        -22.9590    43.0920    -4.8740 hn         1 NN9       0.309500
     33 H14        -21.2450    43.0580    -5.2260 hn         1 NN9       0.309500
     34 H16        -16.5830    42.4300   -11.2510 ha         1 NN9       0.111000
     35 H12        -22.5210    40.3280    -8.7110 ha         1 NN9       0.137000
@<TRIPOS>BOND
     1     1     2 1   
     2     1     6 1   
     3     1    20 1   
     4     1    21 1   
     5     2     7 ar  
     6     2    19 ar  
     7     3     7 ar  
     8     3     8 ar  
     9     3    22 1   
    10     4     8 ar  
    11     4     9 1   
    12     4    19 ar  
    13     5    12 ar  
    14     5    13 ar  
    15     5    35 1   
    16     6    23 1   
    17     6    24 1   
    18     7    25 1   
    19     8    26 1   
    20     9    10 1   
    21     9    27 1   
    22     9    28 1   
    23    10    11 1   
    24    10    29 1   
    25    11    12 ar  
    26    11    15 ar  
    27    12    30 1   
    28    13    14 ar  
    29    13    16 1   
    30    14    15 ar  
    31    14    31 1   
    32    16    17 1   
    33    16    18 2   
    34    17    32 1   
    35    17    33 1   
    36    19    34 1   
@<TRIPOS>SUBSTRUCTURE
     1 NN9         1 TEMP              0 ****  ****    0 ROOT
