@<TRIPOS>MOLECULE
NNA
  112   115     1     0     0
SMALL
No Charge or Current Charge


@<TRIPOS>ATOM
      1 C1           3.1760    -0.5790     0.3410 c          1 NNA       0.657100
      2 O2           3.3400    -1.3770     1.2480 o          1 NNA      -0.670100
      3 N3           4.1260    -0.2470    -0.5920 ns         1 NNA      -0.499900
      4 C4           5.5310    -0.6860    -0.6500 c6         1 NNA       0.181400
      5 C5           5.5990    -2.2170    -0.9590 c6         1 NNA      -0.083900
      6 C6           6.2350     0.0620    -1.8290 c6         1 NNA      -0.083900
      7 C7           4.9820    -2.5900    -2.3330 c6         1 NNA      -0.067900
      8 C8           5.6440    -0.2960    -3.2220 c6         1 NNA      -0.067900
      9 C9           5.6810    -1.8200    -3.4760 c6         1 NNA      -0.075400
     10 C10          6.2630    -0.4080     0.6980 c3         1 NNA      -0.315400
     11 S11          6.4930     1.3060     1.2390 s6         1 NNA       1.026000
     12 O12          7.6570     1.8380     0.5170 o          1 NNA      -0.525000
     13 O13          5.2080     2.0090     1.1210 o          1 NNA      -0.525000
     14 C14          6.9310     1.2210     3.0390 c3         1 NNA      -0.205000
     15 C15          8.1560     0.2840     3.2490 c3         1 NNA      -0.086100
     16 C16          7.2930     2.6530     3.5280 c3         1 NNA      -0.086100
     17 C17          5.7230     0.6970     3.8720 c3         1 NNA      -0.086100
     18 N18          1.9930     0.0700     0.1230 ns         1 NNA      -0.510900
     19 C19          0.7650    -0.0970     0.9400 c3         1 NNA       0.062700
     20 C20          0.5870     1.0750     1.9860 c3         1 NNA      -0.044000
     21 C21          0.3430     2.4290     1.2630 c3         1 NNA      -0.091100
     22 C22         -0.6080     0.8070     2.9420 c3         1 NNA      -0.091100
     23 C23          1.8620     1.2120     2.8660 c3         1 NNA      -0.091100
     24 C24         -0.4540    -0.2750    -0.0340 c          1 NNA       0.596100
     25 O25         -0.4630     0.2600    -1.1400 o          1 NNA      -0.624100
     26 N26         -1.5740    -1.0230     0.3910 n          1 NNA      -0.393800
     27 C27         -1.4350    -2.1840     1.3070 c5         1 NNA       0.134000
     28 C28         -2.8330    -1.0360    -0.4170 c5         1 NNA       0.057700
     29 C29         -3.6310    -2.2140     0.1810 cx         1 NNA      -0.131700
     30 C30         -2.7820    -2.9090     1.2100 cx         1 NNA      -0.131700
     31 C31         -3.1070    -3.6140    -0.0980 cx         1 NNA      -0.075000
     32 C32         -4.1070    -4.7690    -0.0590 c3         1 NNA      -0.065100
     33 C33         -2.0380    -3.9010    -1.1670 c3         1 NNA      -0.065100
     34 C34         -3.6130     0.3140    -0.3440 c          1 NNA       0.601100
     35 O35         -3.3500     1.3020     0.3290 o          1 NNA      -0.612100
     36 N36         -4.7470     0.2350    -1.1240 ns         1 NNA      -0.495900
     37 C37         -5.7750     1.2810    -1.2210 c3         1 NNA       0.090700
     38 C38         -5.9240     1.7620    -2.6880 c3         1 NNA      -0.084400
     39 C39         -4.6280     2.3650    -3.2850 c3         1 NNA      -0.084400
     40 C40         -4.8140     2.8870    -4.7260 c3         1 NNA      -0.071400
     41 C41         -3.5250     3.4850    -5.3210 c3         1 NNA      -0.089100
     42 O42         -7.6180    -0.3570    -1.3060 oh         1 NNA      -0.652000
     43 C43         -7.1240     0.8100    -0.5920 c3         1 NNA       0.079300
     44 C46         -5.7510     0.6950     3.0630 cx         1 NNA       0.039700
     45 C47         -4.5430     1.3350     3.7030 cx         1 NNA      -0.132400
     46 C48         -4.5690    -0.1550     3.4620 cx         1 NNA      -0.132400
     47 C49         -7.0920     0.5490     0.9560 c          1 NNA       0.571100
     48 HN3          3.8360     0.4220    -1.2890 hn         1 NNA       0.313500
     49 H5           6.6460    -2.5480    -0.9400 hc         1 NNA       0.055700
     50 H5A          5.0950    -2.7880    -0.1680 hc         1 NNA       0.055700
     51 H6           6.1630     1.1490    -1.6940 hc         1 NNA       0.055700
     52 H6A          7.3090    -0.1750    -1.8260 hc         1 NNA       0.055700
     53 H7           5.0800    -3.6710    -2.5010 hc         1 NNA       0.044450
     54 H7A          3.9050    -2.3720    -2.3370 hc         1 NNA       0.044450
     55 H8           4.6100     0.0680    -3.3010 hc         1 NNA       0.044450
     56 H8A          6.2100     0.2230    -4.0070 hc         1 NNA       0.044450
     57 H9           6.7250    -2.1540    -3.5630 hc         1 NNA       0.039200
     58 H9A          5.1980    -2.0520    -4.4350 hc         1 NNA       0.039200
     59 H10          5.7440    -0.9200     1.5080 h1         1 NNA       0.110700
     60 H10A         7.2770    -0.8170     0.6420 h1         1 NNA       0.110700
     61 H15          9.0160     0.6150     2.6540 hc         1 NNA       0.054256
     62 H15A         8.4640     0.2770     4.3020 hc         1 NNA       0.054256
     63 H15B         7.9250    -0.7500     2.9690 hc         1 NNA       0.054256
     64 H16          6.4520     3.3440     3.3880 hc         1 NNA       0.054256
     65 H16A         7.5500     2.6510     4.5950 hc         1 NNA       0.054256
     66 H16B         8.1540     3.0550     2.9800 hc         1 NNA       0.054256
     67 H17          5.4400    -0.3220     3.5870 hc         1 NNA       0.054256
     68 H17A         5.9680     0.6810     4.9410 hc         1 NNA       0.054256
     69 H17B         4.8440     1.3410     3.7460 hc         1 NNA       0.054256
     70 HN18         1.9390     0.6820    -0.6810 hn         1 NNA       0.330500
     71 H19          0.8660    -1.0320     1.5010 h1         1 NNA       0.088700
     72 H21         -0.5870     2.4100     0.6820 hc         1 NNA       0.040589
     73 H21A         0.2610     3.2490     1.9870 hc         1 NNA       0.040589
     74 H21B         1.1660     2.6710     0.5800 hc         1 NNA       0.040589
     75 H22         -0.4600    -0.1220     3.5050 hc         1 NNA       0.040589
     76 H22A        -0.7130     1.6190     3.6720 hc         1 NNA       0.040589
     77 H22B        -1.5560     0.7390     2.3980 hc         1 NNA       0.040589
     78 H23          2.7290     1.5190     2.2710 hc         1 NNA       0.040589
     79 H23A         1.7210     1.9680     3.6490 hc         1 NNA       0.040589
     80 H23B         2.1040     0.2620     3.3570 hc         1 NNA       0.040589
     81 H27         -0.5940    -2.8270     1.0160 h1         1 NNA       0.061200
     82 H27A        -1.2460    -1.8500     2.3330 h1         1 NNA       0.061200
     83 H28         -2.6100    -1.2010    -1.4790 h1         1 NNA       0.085700
     84 H29         -4.6950    -2.1000     0.3850 hc         1 NNA       0.114700
     85 H30         -3.2560    -3.2750     2.1190 hc         1 NNA       0.098700
     86 H32         -4.6050    -4.8910    -1.0290 hc         1 NNA       0.041700
     87 H32A        -3.6080    -5.7140     0.1870 hc         1 NNA       0.041700
     88 H32B        -4.8870    -4.6020     0.6940 hc         1 NNA       0.041700
     89 H33         -1.2710    -3.1240    -1.2500 hc         1 NNA       0.041700
     90 H33A        -1.5160    -4.8410    -0.9500 hc         1 NNA       0.041700
     91 H33B        -2.4990    -4.0010    -2.1570 hc         1 NNA       0.041700
     92 HN36        -4.9080    -0.6330    -1.6210 hn         1 NNA       0.325500
     93 H37         -5.4430     2.1610    -0.6520 h1         1 NNA       0.078700
     94 H38         -6.2510     0.9240    -3.3160 hc         1 NNA       0.050700
     95 H38A        -6.7180     2.5180    -2.7330 hc         1 NNA       0.050700
     96 H39         -4.2850     3.1870    -2.6440 hc         1 NNA       0.051700
     97 H39A        -3.8350     1.6070    -3.2830 hc         1 NNA       0.051700
     98 H40         -5.1570     2.0670    -5.3690 hc         1 NNA       0.033700
     99 H40A        -5.6000     3.6530    -4.7370 hc         1 NNA       0.033700
    100 H41         -3.1760     4.3320    -4.7180 hc         1 NNA       0.033033
    101 H41A        -2.7290     2.7330    -5.3560 hc         1 NNA       0.033033
    102 H41B        -3.7060     3.8420    -6.3420 hc         1 NNA       0.033033
    103 HO42        -8.3580    -0.7270    -0.7700 ho         1 NNA       0.474000
    104 H43         -7.8340     1.6400    -0.7150 h1         1 NNA       0.073700
    105 HN45        -5.1930     1.3150     1.1160 hn         1 NNA       0.323500
    106 H46         -6.6640     0.6240     3.6570 h1         1 NNA       0.088700
    107 H47         -3.8880     1.9380     3.0780 hc         1 NNA       0.081450
    108 H47A        -4.6410     1.6840     4.7270 hc         1 NNA       0.081450
    109 H48         -4.6860    -0.8070     4.3240 hc         1 NNA       0.081450
    110 H48A        -3.9300    -0.5490     2.6770 hc         1 NNA       0.081450
    111 O44         -8.0360     0.0090     1.5220 o          1 NNA      -0.612100
    112 N45         -5.9580     0.9230     1.6580 ns         1 NNA      -0.460900
@<TRIPOS>BOND
     1     1     2 2   
     2     1     3 1   
     3     1    18 1   
     4     3     4 1   
     5     3    48 1   
     6     4     5 1   
     7     4     6 1   
     8     4    10 1   
     9     5     7 1   
    10     5    49 1   
    11     5    50 1   
    12     6     8 1   
    13     6    51 1   
    14     6    52 1   
    15     7     9 1   
    16     7    53 1   
    17     7    54 1   
    18     8     9 1   
    19     8    55 1   
    20     8    56 1   
    21     9    57 1   
    22     9    58 1   
    23    10    11 1   
    24    10    59 1   
    25    10    60 1   
    26    11    12 2   
    27    11    13 2   
    28    11    14 1   
    29    14    15 1   
    30    14    16 1   
    31    14    17 1   
    32    15    61 1   
    33    15    62 1   
    34    15    63 1   
    35    16    64 1   
    36    16    65 1   
    37    16    66 1   
    38    17    67 1   
    39    17    68 1   
    40    17    69 1   
    41    18    19 1   
    42    18    70 1   
    43    19    20 1   
    44    19    24 1   
    45    19    71 1   
    46    20    21 1   
    47    20    22 1   
    48    20    23 1   
    49    21    72 1   
    50    21    73 1   
    51    21    74 1   
    52    22    75 1   
    53    22    76 1   
    54    22    77 1   
    55    23    78 1   
    56    23    79 1   
    57    23    80 1   
    58    24    25 2   
    59    24    26 1   
    60    26    27 1   
    61    26    28 1   
    62    27    30 1   
    63    27    81 1   
    64    27    82 1   
    65    28    29 1   
    66    28    34 1   
    67    28    83 1   
    68    29    30 1   
    69    29    31 1   
    70    29    84 1   
    71    30    31 1   
    72    30    85 1   
    73    31    32 1   
    74    31    33 1   
    75    32    86 1   
    76    32    87 1   
    77    32    88 1   
    78    33    89 1   
    79    33    90 1   
    80    33    91 1   
    81    34    35 2   
    82    34    36 1   
    83    36    37 1   
    84    36    92 1   
    85    37    38 1   
    86    37    43 1   
    87    37    93 1   
    88    38    39 1   
    89    38    94 1   
    90    38    95 1   
    91    39    40 1   
    92    39    96 1   
    93    39    97 1   
    94    40    41 1   
    95    40    98 1   
    96    40    99 1   
    97    41   100 1   
    98    41   101 1   
    99    41   102 1   
   100    42    43 1   
   101    42   103 1   
   102    43    47 1   
   103    43   104 1   
   104    44    45 1   
   105    44    46 1   
   106    44   106 1   
   107    44   112 1   
   108    45    46 1   
   109    45   107 1   
   110    45   108 1   
   111    46   109 1   
   112    46   110 1   
   113    47   111 2   
   114    47   112 1   
   115   105   112 1   
@<TRIPOS>SUBSTRUCTURE
     1 NNA         1 TEMP              0 ****  ****    0 ROOT
