@<TRIPOS>MOLECULE
NNA
  112   115     1     0     0
SMALL
abcg2


@<TRIPOS>ATOM
      1 C1           2.8590    -0.5210     0.2080 c          1 NNA       0.657100
      2 O2           2.9830    -1.2200     1.2080 o          1 NNA      -0.670100
      3 N3           3.7520    -0.5170    -0.8230 ns         1 NNA      -0.499900
      4 C4           5.0710    -1.1240    -0.7750 c6         1 NNA       0.181400
      5 C5           4.9830    -2.6560    -0.6260 c6         1 NNA      -0.083900
      6 C6           5.7550    -0.8100    -2.1160 c6         1 NNA      -0.083900
      7 C7           4.2740    -3.3200    -1.7970 c6         1 NNA      -0.067900
      8 C8           5.0840    -1.4900    -3.3060 c6         1 NNA      -0.067900
      9 C9           4.9730    -2.9960    -3.1110 c6         1 NNA      -0.075400
     10 C10          5.9150    -0.6270     0.4200 c3         1 NNA      -0.315400
     11 S11          6.3200     1.1280     0.4120 s6         1 NNA       1.026000
     12 O12          7.4660     1.3300    -0.4830 o          1 NNA      -0.525000
     13 O13          5.1100     1.9110     0.1370 o          1 NNA      -0.525000
     14 C14          6.8800     1.5170     2.1140 c3         1 NNA      -0.205000
     15 C15          7.9840     0.5390     2.4990 c3         1 NNA      -0.086100
     16 C16          7.4110     2.9480     2.0490 c3         1 NNA      -0.086100
     17 C17          5.7000     1.4290     3.0740 c3         1 NNA      -0.086100
     18 N18          1.7980     0.3080     0.0180 ns         1 NNA      -0.510900
     19 C19          0.6810     0.3750     0.9250 c3         1 NNA       0.062700
     20 C20          0.5940     1.7330     1.6750 c3         1 NNA      -0.044000
     21 C21          0.4090     2.9230     0.7330 c3         1 NNA      -0.091100
     22 C22         -0.5680     1.6820     2.6680 c3         1 NNA      -0.091100
     23 C23          1.9000     1.9180     2.4520 c3         1 NNA      -0.091100
     24 C24         -0.5720     0.0590     0.1120 c          1 NNA       0.596100
     25 O25         -0.7920     0.6560    -0.9360 o          1 NNA      -0.624100
     26 N26         -1.4020    -0.9040     0.5470 n          1 NNA      -0.393800
     27 C27         -1.2740    -1.7080     1.7610 c5         1 NNA       0.134000
     28 C28         -2.6210    -1.1620    -0.1950 c5         1 NNA       0.057700
     29 C29         -3.2180    -2.3900     0.4590 cx         1 NNA      -0.131700
     30 C30         -2.3920    -2.7140     1.6690 cx         1 NNA      -0.131700
     31 C31         -2.4170    -3.6620     0.5030 cx         1 NNA      -0.075000
     32 C32         -3.2300    -4.9200     0.7110 c3         1 NNA      -0.065100
     33 C33         -1.2020    -3.8760    -0.3680 c3         1 NNA      -0.065100
     34 C34         -3.5890     0.0090    -0.0350 c          1 NNA       0.601100
     35 O35         -3.6750     0.6100     1.0230 o          1 NNA      -0.612100
     36 N36         -4.3530     0.2500    -1.1090 ns         1 NNA      -0.495900
     37 C37         -5.3620     1.2850    -1.1740 c3         1 NNA       0.090700
     38 C38         -5.0210     2.3160    -2.2470 c3         1 NNA      -0.084400
     39 C39         -3.7020     3.0260    -1.9680 c3         1 NNA      -0.084400
     40 C40         -3.3470     4.0680    -3.0210 c3         1 NNA      -0.071400
     41 C41         -2.0150     4.7470    -2.7360 c3         1 NNA      -0.089100
     42 O42         -6.8200    -0.0230    -2.6090 oh         1 NNA      -0.652000
     43 C43         -6.7430     0.6430    -1.3830 c3         1 NNA       0.079300
     44 C46         -7.4310    -0.6110     2.1260 cx         1 NNA       0.039700
     45 C47         -6.8750    -0.0960     3.4130 cx         1 NNA      -0.132400
     46 C48         -6.2610    -1.2950     2.7590 cx         1 NNA      -0.132400
     47 C49         -7.0140    -0.3480    -0.2500 c          1 NNA       0.571100
     48 HN3          3.6690     0.2510    -1.4700 hn         1 NNA       0.313500
     49 H5           6.0060    -3.0400    -0.5650 hc         1 NNA       0.055700
     50 H5A          4.4990    -2.9130     0.3150 hc         1 NNA       0.055700
     51 H6           5.7860     0.2700    -2.2820 hc         1 NNA       0.055700
     52 H6A          6.7950    -1.1390    -2.0470 hc         1 NNA       0.055700
     53 H7           4.2530    -4.4010    -1.6350 hc         1 NNA       0.044450
     54 H7A          3.2320    -2.9910    -1.8390 hc         1 NNA       0.044450
     55 H8           4.0880    -1.0700    -3.4710 hc         1 NNA       0.044450
     56 H8A          5.6600    -1.2640    -4.2070 hc         1 NNA       0.044450
     57 H9           5.9770    -3.4350    -3.1030 hc         1 NNA       0.039200
     58 H9A          4.4420    -3.4490    -3.9520 hc         1 NNA       0.039200
     59 H10          5.3950    -0.8450     1.3530 h1         1 NNA       0.110700
     60 H10A         6.8700    -1.1530     0.4340 h1         1 NNA       0.110700
     61 H15          8.7920     0.5220     1.7680 hc         1 NNA       0.054256
     62 H15A         8.4070     0.8480     3.4550 hc         1 NNA       0.054256
     63 H15B         7.6060    -0.4760     2.6250 hc         1 NNA       0.054256
     64 H16          6.6420     3.6520     1.7280 hc         1 NNA       0.054256
     65 H16A         7.7290     3.2410     3.0500 hc         1 NNA       0.054256
     66 H16B         8.2690     3.0380     1.3850 hc         1 NNA       0.054256
     67 H17          5.2570     0.4340     3.1120 hc         1 NNA       0.054256
     68 H17A         6.0580     1.6610     4.0780 hc         1 NNA       0.054256
     69 H17B         4.9200     2.1460     2.8250 hc         1 NNA       0.054256
     70 HN18         1.7150     0.8140    -0.8500 hn         1 NNA       0.330500
     71 H19          0.8450    -0.3910     1.6830 h1         1 NNA       0.088700
     72 H21         -0.5490     2.9050     0.2150 hc         1 NNA       0.040589
     73 H21A         0.4550     3.8490     1.3100 hc         1 NNA       0.040589
     74 H21B         1.1970     2.9740    -0.0210 hc         1 NNA       0.040589
     75 H22         -0.4240     0.8830     3.4000 hc         1 NNA       0.040589
     76 H22A        -0.6290     2.6210     3.2220 hc         1 NNA       0.040589
     77 H22B        -1.5300     1.5220     2.1800 hc         1 NNA       0.040589
     78 H23          2.7620     1.9770     1.7880 hc         1 NNA       0.040589
     79 H23A         1.8630     2.8440     3.0310 hc         1 NNA       0.040589
     80 H23B         2.0710     1.0970     3.1520 hc         1 NNA       0.040589
     81 H27         -0.2930    -2.1870     1.8070 h1         1 NNA       0.061200
     82 H27A        -1.3930    -1.0980     2.6580 h1         1 NNA       0.061200
     83 H28         -2.3920    -1.3290    -1.2530 h1         1 NNA       0.085700
     84 H29         -4.3000    -2.4640     0.4710 hc         1 NNA       0.114700
     85 H30         -2.8520    -3.0200     2.6010 hc         1 NNA       0.098700
     86 H32         -3.5910    -5.3130    -0.2410 hc         1 NNA       0.041700
     87 H32A        -2.6290    -5.6960     1.1880 hc         1 NNA       0.041700
     88 H32B        -4.0990    -4.7400     1.3460 hc         1 NNA       0.041700
     89 H33         -0.6510    -2.9630    -0.5850 hc         1 NNA       0.041700
     90 H33A        -0.5100    -4.5710     0.1110 hc         1 NNA       0.041700
     91 H33B        -1.4960    -4.3120    -1.3250 hc         1 NNA       0.041700
     92 HN36        -4.1630    -0.2650    -1.9550 hn         1 NNA       0.325500
     93 H37         -5.3640     1.7930    -0.2080 h1         1 NNA       0.078700
     94 H38         -4.9850     1.8360    -3.2300 hc         1 NNA       0.050700
     95 H38A        -5.8320     3.0500    -2.2910 hc         1 NNA       0.050700
     96 H39         -3.7480     3.5080    -0.9850 hc         1 NNA       0.051700
     97 H39A        -2.8940     2.2920    -1.9030 hc         1 NNA       0.051700
     98 H40         -3.3130     3.5910    -4.0060 hc         1 NNA       0.033700
     99 H40A        -4.1390     4.8210    -3.0770 hc         1 NNA       0.033700
    100 H41         -2.0320     5.2550    -1.7700 hc         1 NNA       0.033033
    101 H41A        -1.2000     4.0210    -2.7070 hc         1 NNA       0.033033
    102 H41B        -1.7710     5.4910    -3.4960 hc         1 NNA       0.033033
    103 HO42        -6.7790    -0.9710    -2.4120 ho         1 NNA       0.474000
    104 H43         -7.4960     1.4410    -1.3560 h1         1 NNA       0.073700
    105 HN45        -7.3120     1.1830     1.0430 hn         1 NNA       0.323500
    106 H46         -8.3860    -1.1250     2.1720 h1         1 NNA       0.088700
    107 H47         -6.3150     0.8300     3.3800 hc         1 NNA       0.081450
    108 H47A        -7.4710    -0.2310     4.3060 hc         1 NNA       0.081450
    109 H48         -6.4280    -2.2710     3.1950 hc         1 NNA       0.081450
    110 H48A        -5.2930    -1.1610     2.2940 hc         1 NNA       0.081450
    111 O44         -6.9960    -1.5510    -0.4740 o          1 NNA      -0.612100
    112 N45         -7.2320     0.1820     0.9570 ns         1 NNA      -0.460900
@<TRIPOS>BOND
     1     1     2 2   
     2     1     3 1   
     3     1    18 1   
     4     3     4 1   
     5     3    48 1   
     6     4     5 1   
     7     4     6 1   
     8     4    10 1   
     9     5     7 1   
    10     5    49 1   
    11     5    50 1   
    12     6     8 1   
    13     6    51 1   
    14     6    52 1   
    15     7     9 1   
    16     7    53 1   
    17     7    54 1   
    18     8     9 1   
    19     8    55 1   
    20     8    56 1   
    21     9    57 1   
    22     9    58 1   
    23    10    11 1   
    24    10    59 1   
    25    10    60 1   
    26    11    12 2   
    27    11    13 2   
    28    11    14 1   
    29    14    15 1   
    30    14    16 1   
    31    14    17 1   
    32    15    61 1   
    33    15    62 1   
    34    15    63 1   
    35    16    64 1   
    36    16    65 1   
    37    16    66 1   
    38    17    67 1   
    39    17    68 1   
    40    17    69 1   
    41    18    19 1   
    42    18    70 1   
    43    19    20 1   
    44    19    24 1   
    45    19    71 1   
    46    20    21 1   
    47    20    22 1   
    48    20    23 1   
    49    21    72 1   
    50    21    73 1   
    51    21    74 1   
    52    22    75 1   
    53    22    76 1   
    54    22    77 1   
    55    23    78 1   
    56    23    79 1   
    57    23    80 1   
    58    24    25 2   
    59    24    26 1   
    60    26    27 1   
    61    26    28 1   
    62    27    30 1   
    63    27    81 1   
    64    27    82 1   
    65    28    29 1   
    66    28    34 1   
    67    28    83 1   
    68    29    30 1   
    69    29    31 1   
    70    29    84 1   
    71    30    31 1   
    72    30    85 1   
    73    31    32 1   
    74    31    33 1   
    75    32    86 1   
    76    32    87 1   
    77    32    88 1   
    78    33    89 1   
    79    33    90 1   
    80    33    91 1   
    81    34    35 2   
    82    34    36 1   
    83    36    37 1   
    84    36    92 1   
    85    37    38 1   
    86    37    43 1   
    87    37    93 1   
    88    38    39 1   
    89    38    94 1   
    90    38    95 1   
    91    39    40 1   
    92    39    96 1   
    93    39    97 1   
    94    40    41 1   
    95    40    98 1   
    96    40    99 1   
    97    41   100 1   
    98    41   101 1   
    99    41   102 1   
   100    42    43 1   
   101    42   103 1   
   102    43    47 1   
   103    43   104 1   
   104    44    45 1   
   105    44    46 1   
   106    44   106 1   
   107    44   112 1   
   108    45    46 1   
   109    45   107 1   
   110    45   108 1   
   111    46   109 1   
   112    46   110 1   
   113    47   111 2   
   114    47   112 1   
   115   105   112 1   
@<TRIPOS>SUBSTRUCTURE
     1 NNA         1 TEMP              0 ****  ****    0 ROOT
