@<TRIPOS>MOLECULE
NNB
   37    39     1     0     0
SMALL
bcc


@<TRIPOS>ATOM
      1 C13         10.7310    65.3590    61.8760 ca         1 NNB      -0.134000
      2 C14         10.3200    66.0130    60.7250 ca         1 NNB      -0.087000
      3 C15          9.1060    65.6790    60.1440 ca         1 NNB      -0.028900
      4 BR2          8.5390    66.5820    58.5880 br         1 NNB      -0.094100
      5 C16          8.2990    64.6960    60.6950 ca         1 NNB      -0.087000
      6 C17          8.7250    64.0340    61.8360 ca         1 NNB      -0.134000
      7 C12          9.9410    64.3580    62.4280 ca         1 NNB       0.046600
      8 N2          10.3050    63.6810    63.6130 ns         1 NNB      -0.409100
      9 C11         11.4560    63.0420    63.8650 cs         1 NNB       0.634500
     10 S1          11.6890    62.1420    65.2420 s          1 NNB      -0.627400
     11 O3          12.3460    63.2080    62.9120 os         1 NNB      -0.380900
     12 C10         13.5550    62.4530    62.9190 c3         1 NNB       0.132400
     13 C9          14.3370    62.8570    61.6810 c3         1 NNB       0.105000
     14 N1          13.5160    62.9120    60.4930 n          1 NNB      -0.523400
     15 C8          13.1750    64.0930    59.8460 c          1 NNB       0.733600
     16 O2          13.5960    65.1880    60.1200 o          1 NNB      -0.565000
     17 C2          12.2270    63.7110    58.7750 ca         1 NNB      -0.145600
     18 C3          11.5800    64.4900    57.8410 ca         1 NNB      -0.062500
     19 C4          10.7260    63.8400    56.9520 ca         1 NNB      -0.113500
     20 C5          10.5430    62.4620    57.0090 ca         1 NNB      -0.113500
     21 C6          11.2070    61.6840    57.9560 ca         1 NNB      -0.062500
     22 C1          12.0460    62.3400    58.8310 ca         1 NNB      -0.145600
     23 C7          12.8760    61.8150    59.9390 c          1 NNB       0.733600
     24 O1          12.9990    60.6760    60.3160 o          1 NNB      -0.565000
     25 H13         11.6630    65.6480    62.3380 ha         1 NNB       0.152000
     26 H14         10.9470    66.7860    60.3040 ha         1 NNB       0.155000
     27 H16          7.3510    64.4310    60.2480 ha         1 NNB       0.155000
     28 H17          8.1030    63.2570    62.2630 ha         1 NNB       0.152000
     29 H2           9.5710    63.5100    64.2840 hn         1 NNB       0.360500
     30 H101        14.1450    62.6700    63.8100 h1         1 NNB       0.080700
     31 H102        13.3190    61.3900    62.9170 h1         1 NNB       0.080700
     32 H9C1        14.7810    63.8420    61.8120 h1         1 NNB       0.079200
     33 H9C2        15.1540    62.1480    61.5440 h1         1 NNB       0.079200
     34 H6          11.0640    60.6120    57.9990 ha         1 NNB       0.157000
     35 H5           9.8760    61.9860    56.3030 ha         1 NNB       0.142500
     36 H4          10.1950    64.4160    56.2060 ha         1 NNB       0.142500
     37 H3          11.7210    65.5620    57.7970 ha         1 NNB       0.157000
@<TRIPOS>BOND
     1     1     2 ar  
     2     1     7 ar  
     3     1    25 1   
     4     2     3 ar  
     5     2    26 1   
     6     3     4 1   
     7     3     5 ar  
     8     5     6 ar  
     9     5    27 1   
    10     6     7 ar  
    11     6    28 1   
    12     7     8 1   
    13     8     9 1   
    14     8    29 1   
    15     9    10 2   
    16     9    11 1   
    17    11    12 1   
    18    12    13 1   
    19    12    30 1   
    20    12    31 1   
    21    13    14 1   
    22    13    32 1   
    23    13    33 1   
    24    14    15 1   
    25    14    23 1   
    26    15    16 2   
    27    15    17 1   
    28    17    18 ar  
    29    17    22 ar  
    30    18    19 ar  
    31    18    37 1   
    32    19    20 ar  
    33    19    36 1   
    34    20    21 ar  
    35    20    35 1   
    36    21    22 ar  
    37    21    34 1   
    38    22    23 1   
    39    23    24 2   
@<TRIPOS>SUBSTRUCTURE
     1 NNB         1 TEMP              0 ****  ****    0 ROOT
