@<TRIPOS>MOLECULE
NNB
   37    39     1     0     0
SMALL
No Charge or Current Charge


@<TRIPOS>ATOM
      1 C13         10.6910    65.3370    61.8650 ca         1 NNB      -0.116000
      2 C14         10.2650    66.0430    60.7260 ca         1 NNB      -0.069000
      3 C15          9.0030    65.7770    60.1710 ca         1 NNB      -0.028900
      4 Br2          8.4350    66.7160    58.6050 br         1 NNB      -0.094100
      5 C16          8.1580    64.8250    60.7640 ca         1 NNB      -0.069000
      6 C17          8.5840    64.1260    61.9080 ca         1 NNB      -0.116000
      7 C12          9.8600    64.3620    62.4510 ca         1 NNB       0.046600
      8 N2          10.2730    63.6240    63.5870 ns         1 NNB      -0.342100
      9 C11         11.4720    63.0810    63.9550 cs         1 NNB       0.567500
     10 S1          11.7070    62.3070    65.4190 s          1 NNB      -0.627400
     11 O3          12.3820    63.2020    62.9630 os         1 NNB      -0.404100
     12 C10         13.6450    62.5130    63.0050 c3         1 NNB       0.155600
     13 C9          14.3930    62.7540    61.6700 c3         1 NNB       0.105000
     14 N1          13.5010    62.8440    60.4910 n          1 NNB      -0.389400
     15 C8          13.1380    64.0520    59.8960 c          1 NNB       0.591100
     16 O2          13.5080    65.1740    60.2100 o          1 NNB      -0.489500
     17 C2          12.2280    63.6710    58.7780 ca         1 NNB      -0.145600
     18 C3          11.5420    64.4770    57.8590 ca         1 NNB      -0.044500
     19 C4          10.7270    63.8360    56.9010 ca         1 NNB      -0.095500
     20 C5          10.6160    62.4240    56.8760 ca         1 NNB      -0.095500
     21 C6          11.3180    61.6300    57.8090 ca         1 NNB      -0.044500
     22 C1          12.1200    62.2860    58.7540 ca         1 NNB      -0.145600
     23 C7          12.9560    61.7300    59.8570 c          1 NNB       0.591100
     24 O1          13.1250    60.5560    60.1540 o          1 NNB      -0.489500
     25 H13         11.6670    65.5560    62.2910 ha         1 NNB       0.134000
     26 H14         10.9150    66.7890    60.2750 ha         1 NNB       0.137000
     27 H16          7.1780    64.6250    60.3370 ha         1 NNB       0.137000
     28 H17          7.9280    63.3830    62.3560 ha         1 NNB       0.134000
     29 H2           9.5420    63.4700    64.2700 hn         1 NNB       0.360500
     30 H101        14.2640    62.8510    63.8460 h1         1 NNB       0.080700
     31 H102        13.4780    61.4330    63.1160 h1         1 NNB       0.080700
     32 H9C1        14.9630    63.6880    61.7580 h1         1 NNB       0.079200
     33 H9C2        15.1220    61.9470    61.5150 h1         1 NNB       0.079200
     34 H6          11.2360    60.5450    57.7980 ha         1 NNB       0.139000
     35 H5           9.9830    61.9460    56.1320 ha         1 NNB       0.124500
     36 H4          10.1780    64.4340    56.1760 ha         1 NNB       0.124500
     37 H3          11.6320    65.5610    57.8840 ha         1 NNB       0.139000
@<TRIPOS>BOND
     1     1     2 ar  
     2     1     7 ar  
     3     1    25 1   
     4     2     3 ar  
     5     2    26 1   
     6     3     4 1   
     7     3     5 ar  
     8     5     6 ar  
     9     5    27 1   
    10     6     7 ar  
    11     6    28 1   
    12     7     8 1   
    13     8     9 1   
    14     8    29 1   
    15     9    10 2   
    16     9    11 1   
    17    11    12 1   
    18    12    13 1   
    19    12    30 1   
    20    12    31 1   
    21    13    14 1   
    22    13    32 1   
    23    13    33 1   
    24    14    15 1   
    25    14    23 1   
    26    15    16 2   
    27    15    17 1   
    28    17    18 ar  
    29    17    22 ar  
    30    18    19 ar  
    31    18    37 1   
    32    19    20 ar  
    33    19    36 1   
    34    20    21 ar  
    35    20    35 1   
    36    21    22 ar  
    37    21    34 1   
    38    22    23 1   
    39    23    24 2   
@<TRIPOS>SUBSTRUCTURE
     1 NNB         1 TEMP              0 ****  ****    0 ROOT
