@<TRIPOS>MOLECULE
NNC
   37    39     1     0     0
SMALL
bcc


@<TRIPOS>ATOM
      1 C13         10.6080    13.0100    15.4900 ca         1 NNC      -0.119500
      2 C14         10.2850    12.2550    16.6060 ca         1 NNC      -0.108000
      3 C15          9.2570    12.6730    17.4360 ca         1 NNC       0.021400
      4 CL2          8.8370    11.7180    18.8180 cl         1 NNC      -0.107400
      5 C16          8.5620    13.8430    17.1810 ca         1 NNC      -0.108000
      6 C17          8.8990    14.6000    16.0710 ca         1 NNC      -0.119500
      7 C12          9.9160    14.1840    15.2200 ca         1 NNC       0.029600
      8 N2          10.1910    14.9500    14.0610 ns         1 NNC      -0.414100
      9 C11         11.3550    15.5360    13.7550 cs         1 NNC       0.636500
     10 S1          11.5450    16.5170    12.4270 s          1 NNC      -0.629400
     11 O3          12.3000    15.2430    14.6200 os         1 NNC      -0.383900
     12 C10         13.5360    15.9500    14.6110 c3         1 NNC       0.133400
     13 C9          14.2430    15.6040    15.9140 c3         1 NNC       0.105000
     14 N1          13.3380    15.5890    17.0420 n          1 NNC      -0.522400
     15 C7          12.5840    16.6790    17.4450 c          1 NNC       0.733100
     16 O1          12.6810    17.7940    16.9980 o          1 NNC      -0.562500
     17 C1          11.6750    16.1820    18.5030 ca         1 NNC      -0.145600
     18 C6          10.7140    16.8420    19.2360 ca         1 NNC      -0.063000
     19 C5          10.0070    16.0950    20.1770 ca         1 NNC      -0.116500
     20 C4          10.2710    14.7420    20.3670 ca         1 NNC      -0.116500
     21 C3          11.2470    14.0870    19.6190 ca         1 NNC      -0.063000
     22 C2          11.9310    14.8330    18.6850 ca         1 NNC      -0.145600
     23 C8          12.9890    14.4330    17.7310 c          1 NNC       0.733100
     24 O2          13.4770    13.3450    17.5630 o          1 NNC      -0.562500
     25 H13         11.3900    12.6640    14.8280 ha         1 NNC       0.150500
     26 H14         10.8230    11.3410    16.8140 ha         1 NNC       0.155000
     27 H16          7.7700    14.1710    17.8400 ha         1 NNC       0.155000
     28 H17          8.3670    15.5200    15.8690 ha         1 NNC       0.150500
     29 H2           9.4120    15.1910    13.4650 hn         1 NNC       0.363500
     30 H101        14.1510    15.6430    13.7640 h1         1 NNC       0.081200
     31 H102        13.3490    17.0190    14.5260 h1         1 NNC       0.081200
     32 H9C1        14.7000    14.6180    15.8570 h1         1 NNC       0.077700
     33 H9C2        15.0440    16.3260    16.0760 h1         1 NNC       0.077700
     34 H6          10.5110    17.8950    19.0920 ha         1 NNC       0.158000
     35 H5           9.2410    16.5740    20.7710 ha         1 NNC       0.142000
     36 H4           9.7060    14.1890    21.1050 ha         1 NNC       0.142000
     37 H3          11.4510    13.0350    19.7670 ha         1 NNC       0.158000
@<TRIPOS>BOND
     1     1     2 ar  
     2     1     7 ar  
     3     1    25 1   
     4     2     3 ar  
     5     2    26 1   
     6     3     4 1   
     7     3     5 ar  
     8     5     6 ar  
     9     5    27 1   
    10     6     7 ar  
    11     6    28 1   
    12     7     8 1   
    13     8     9 1   
    14     8    29 1   
    15     9    10 2   
    16     9    11 1   
    17    11    12 1   
    18    12    13 1   
    19    12    30 1   
    20    12    31 1   
    21    13    14 1   
    22    13    32 1   
    23    13    33 1   
    24    14    15 1   
    25    14    23 1   
    26    15    16 2   
    27    15    17 1   
    28    17    18 ar  
    29    17    22 ar  
    30    18    19 ar  
    31    18    34 1   
    32    19    20 ar  
    33    19    35 1   
    34    20    21 ar  
    35    20    36 1   
    36    21    22 ar  
    37    21    37 1   
    38    22    23 1   
    39    23    24 2   
@<TRIPOS>SUBSTRUCTURE
     1 NNC         1 TEMP              0 ****  ****    0 ROOT
