@<TRIPOS>MOLECULE
NNC
   37    39     1     0     0
SMALL
No Charge or Current Charge


@<TRIPOS>ATOM
      1 C13         10.5940    13.1310    15.6500 ca         1 NNC      -0.101500
      2 C14         10.1580    12.4230    16.7850 ca         1 NNC      -0.090000
      3 C15          8.8830    12.6700    17.3170 ca         1 NNC       0.113000
      4 Cl2          8.3470    11.8010    18.7490 cl         1 NNC      -0.199000
      5 C16          8.0350    13.6080    16.7060 ca         1 NNC      -0.090000
      6 C17          8.4700    14.3100    15.5660 ca         1 NNC      -0.101500
      7 C12          9.7590    14.0900    15.0460 ca         1 NNC       0.029600
      8 N2          10.1790    14.8300    13.9130 ns         1 NNC      -0.347100
      9 C11         11.3770    15.3860    13.5590 cs         1 NNC       0.569500
     10 S1          11.6240    16.1540    12.0940 s          1 NNC      -0.629400
     11 O3          12.2740    15.2810    14.5650 os         1 NNC      -0.407100
     12 C10         13.5300    15.9850    14.5370 c3         1 NNC       0.156600
     13 C9          14.2570    15.7670    15.8860 c3         1 NNC       0.105000
     14 N1          13.3450    15.6840    17.0500 n          1 NNC      -0.388400
     15 C7          12.7800    16.8010    17.6610 c          1 NNC       0.590600
     16 O1          12.9450    17.9720    17.3530 o          1 NNC      -0.487000
     17 C1          11.9250    16.2510    18.7530 ca         1 NNC      -0.145600
     18 C6          11.0990    16.9110    19.6740 ca         1 NNC      -0.045000
     19 C5          10.3840    16.1220    20.6010 ca         1 NNC      -0.098500
     20 C4          10.5050    14.7100    20.5940 ca         1 NNC      -0.098500
     21 C3          11.3450    14.0650    19.6600 ca         1 NNC      -0.045000
     22 C2          12.0440    14.8660    18.7470 ca         1 NNC      -0.145600
     23 C8          12.9800    14.4800    17.6520 c          1 NNC       0.590600
     24 O2          13.3650    13.3570    17.3590 o          1 NNC      -0.487000
     25 H13         11.5800    12.9240    15.2420 ha         1 NNC       0.132500
     26 H14         10.8080    11.6880    17.2510 ha         1 NNC       0.137000
     27 H16          7.0460    13.7920    17.1160 ha         1 NNC       0.137000
     28 H17          7.8100    15.0410    15.1030 ha         1 NNC       0.132500
     29 H2           9.4580    14.9720    13.2160 hn         1 NNC       0.363500
     30 H101        14.1660    15.6450    13.7090 h1         1 NNC       0.081200
     31 H102        13.3520    17.0610    14.4100 h1         1 NNC       0.081200
     32 H9C1        14.8370    14.8370    15.8200 h1         1 NNC       0.077700
     33 H9C2        14.9760    16.5820    16.0440 h1         1 NNC       0.077700
     34 H6          11.0090    17.9950    19.6720 ha         1 NNC       0.140000
     35 H5           9.7320    16.6030    21.3270 ha         1 NNC       0.124000
     36 H4           9.9450    14.1160    21.3130 ha         1 NNC       0.124000
     37 H3          11.4420    12.9810    19.6480 ha         1 NNC       0.140000
@<TRIPOS>BOND
     1     1     2 ar  
     2     1     7 ar  
     3     1    25 1   
     4     2     3 ar  
     5     2    26 1   
     6     3     4 1   
     7     3     5 ar  
     8     5     6 ar  
     9     5    27 1   
    10     6     7 ar  
    11     6    28 1   
    12     7     8 1   
    13     8     9 1   
    14     8    29 1   
    15     9    10 2   
    16     9    11 1   
    17    11    12 1   
    18    12    13 1   
    19    12    30 1   
    20    12    31 1   
    21    13    14 1   
    22    13    32 1   
    23    13    33 1   
    24    14    15 1   
    25    14    23 1   
    26    15    16 2   
    27    15    17 1   
    28    17    18 ar  
    29    17    22 ar  
    30    18    19 ar  
    31    18    34 1   
    32    19    20 ar  
    33    19    35 1   
    34    20    21 ar  
    35    20    36 1   
    36    21    22 ar  
    37    21    37 1   
    38    22    23 1   
    39    23    24 2   
@<TRIPOS>SUBSTRUCTURE
     1 NNC         1 TEMP              0 ****  ****    0 ROOT
