@<TRIPOS>MOLECULE
NND
   51    51     1     0     0
SMALL
No Charge or Current Charge


@<TRIPOS>ATOM
      1 O6          -2.6100     2.9130     1.1720 oh         1 NND      -0.647000
      2 C6          -2.8160     2.5980    -0.2200 c3         1 NND       0.165600
      3 C5          -3.0230     1.0580    -0.5050 c6         1 NND       0.196500
      4 C4          -4.4070     0.5980     0.0860 c6         1 NND       0.179300
      5 O4          -5.5220     1.3440    -0.4480 oh         1 NND      -0.729000
      6 O3          -5.9110    -1.3360     0.3480 oh         1 NND      -0.670000
      7 C2          -3.4940    -1.7510     0.3700 c6         1 NND       0.133300
      8 O2          -3.7380    -3.1540     0.1240 oh         1 NND      -0.728000
      9 N1          -1.8780     0.1720    -0.0340 n3         1 NND      -0.716600
     10 C8          -0.5500     0.5940    -0.5710 c3         1 NND       0.179800
     11 C7           0.6710    -0.1710    -0.0040 c3         1 NND      -0.078400
     12 C1          -2.1600    -1.2800    -0.2760 c6         1 NND       0.132800
     13 C9           2.0190     0.4560    -0.4250 c3         1 NND      -0.075400
     14 C10          3.2410    -0.3070     0.1320 c3         1 NND      -0.074400
     15 C14          4.5880     0.3210    -0.2880 c3         1 NND      -0.074400
     16 C13          5.8100    -0.4420     0.2690 c3         1 NND      -0.074400
     17 C12          7.1570     0.1860    -0.1510 c3         1 NND      -0.075400
     18 C16          9.7230     0.0500    -0.0130 c3         1 NND      -0.088100
     19 C11          8.3790    -0.5760     0.4060 c3         1 NND      -0.075400
     20 C31         -4.6540    -0.9050    -0.2060 c6         1 NND       0.137300
     21 H6          -2.4660     3.8830     1.2270 ho         1 NND       0.438000
     22 H6C1        -3.6890     3.1440    -0.5980 h1         1 NND       0.028200
     23 H6C2        -1.9650     2.9540    -0.8140 h1         1 NND       0.028200
     24 H5          -3.0980     0.9620    -1.5990 h1         1 NND       0.034700
     25 H4          -4.3620     0.7260     1.1790 h1         1 NND       0.071700
     26 HA          -6.3000     0.7570    -0.2810 ho         1 NND       0.525000
     27 H31         -4.6650    -1.0470    -1.2980 h1         1 NND       0.047700
     28 H3          -5.8220    -2.3160     0.4190 ho         1 NND       0.462000
     29 H2          -3.4310    -1.5650     1.4540 h1         1 NND       0.060700
     30 HB          -3.0120    -3.6560     0.5660 ho         1 NND       0.509000
     31 H1C1        -1.3590    -1.9020     0.1450 h1         1 NND       0.039200
     32 H1C2        -2.1920    -1.4830    -1.3580 h1         1 NND       0.039200
     33 H8C1        -0.5430     0.5040    -1.6660 h1         1 NND       0.032700
     34 H8C2        -0.3770     1.6510    -0.3360 h1         1 NND       0.032700
     35 H7C1         0.6060    -0.1870     1.0900 hc         1 NND       0.046200
     36 H7C2         0.6510    -1.2120    -0.3490 hc         1 NND       0.046200
     37 H9C1         2.0780     0.4800    -1.5200 hc         1 NND       0.036700
     38 H9C2         2.0560     1.4960    -0.0790 hc         1 NND       0.036700
     39 H101         3.1810    -0.3320     1.2280 hc         1 NND       0.037700
     40 H102         3.2050    -1.3470    -0.2140 hc         1 NND       0.037700
     41 H141         4.6470     0.3460    -1.3830 hc         1 NND       0.037200
     42 H142         4.6240     1.3610     0.0590 hc         1 NND       0.037200
     43 H131         5.7500    -0.4660     1.3640 hc         1 NND       0.037200
     44 H132         5.7740    -1.4820    -0.0780 hc         1 NND       0.037200
     45 H121         7.2170     0.2110    -1.2460 hc         1 NND       0.037200
     46 H122         7.1930     1.2270     0.1960 hc         1 NND       0.037200
     47 H111         8.3240    -0.6010     1.5010 hc         1 NND       0.036700
     48 H112         8.3480    -1.6160     0.0590 hc         1 NND       0.036700
     49 H161         9.8240     0.0580    -1.1050 hc         1 NND       0.031367
     50 H162         9.8000     1.0820     0.3500 hc         1 NND       0.031367
     51 H163        10.5590    -0.5230     0.4050 hc         1 NND       0.031367
@<TRIPOS>BOND
     1     1     2 1   
     2     1    21 1   
     3     2     3 1   
     4     2    22 1   
     5     2    23 1   
     6     3     4 1   
     7     3     9 1   
     8     3    24 1   
     9     4     5 1   
    10     4    20 1   
    11     4    25 1   
    12     5    26 1   
    13     6    20 1   
    14     6    28 1   
    15     7     8 1   
    16     7    12 1   
    17     7    20 1   
    18     7    29 1   
    19     8    30 1   
    20     9    10 1   
    21     9    12 1   
    22    10    11 1   
    23    10    33 1   
    24    10    34 1   
    25    11    13 1   
    26    11    35 1   
    27    11    36 1   
    28    12    31 1   
    29    12    32 1   
    30    13    14 1   
    31    13    37 1   
    32    13    38 1   
    33    14    15 1   
    34    14    39 1   
    35    14    40 1   
    36    15    16 1   
    37    15    41 1   
    38    15    42 1   
    39    16    17 1   
    40    16    43 1   
    41    16    44 1   
    42    17    19 1   
    43    17    45 1   
    44    17    46 1   
    45    18    19 1   
    46    18    49 1   
    47    18    50 1   
    48    18    51 1   
    49    19    47 1   
    50    19    48 1   
    51    20    27 1   
@<TRIPOS>SUBSTRUCTURE
     1 NND         1 TEMP              0 ****  ****    0 ROOT
