@<TRIPOS>MOLECULE
NND
   51    51     1     0     0
SMALL
bcc


@<TRIPOS>ATOM
      1 O6          -2.3560     2.6850     1.0580 oh         1 NND      -0.584800
      2 C6          -2.7240     2.4810    -0.2860 c3         1 NND       0.142400
      3 C5          -2.9730     1.0010    -0.5360 c6         1 NND       0.196500
      4 C4          -4.2110     0.5270     0.2390 c6         1 NND       0.156100
      5 O4          -5.3020     1.3410    -0.1260 oh         1 NND      -0.606800
      6 O3          -5.6250    -1.2980     0.7410 oh         1 NND      -0.607800
      7 C2          -3.2980    -1.7870     0.2130 c6         1 NND       0.110100
      8 O2          -3.6060    -3.1080    -0.1750 oh         1 NND      -0.605800
      9 N1          -1.8440     0.1430    -0.1760 n3         1 NND      -0.716600
     10 C8          -0.5500     0.5920    -0.6690 c3         1 NND       0.179800
     11 C7           0.6300    -0.0950     0.0070 c3         1 NND      -0.078400
     12 C1          -2.1180    -1.2260    -0.5680 c6         1 NND       0.132800
     13 C9           1.9630     0.4640    -0.4760 c3         1 NND      -0.075400
     14 C10          3.1590    -0.2030     0.1900 c3         1 NND      -0.074400
     15 C14          4.5010     0.3200    -0.3080 c3         1 NND      -0.074400
     16 C13          5.6910    -0.3580     0.3590 c3         1 NND      -0.074400
     17 C12          7.0370     0.1530    -0.1390 c3         1 NND      -0.075400
     18 C16          9.5650    -0.0180     0.0290 c3         1 NND      -0.088100
     19 C11          8.2220    -0.5330     0.5280 c3         1 NND      -0.075400
     20 C31         -4.5190    -0.9330    -0.0550 c6         1 NND       0.114100
     21 H6          -2.3230     3.6320     1.2160 ho         1 NND       0.399000
     22 H6C1        -3.6410     3.0200    -0.5430 h1         1 NND       0.028200
     23 H6C2        -1.9570     2.8520    -0.9770 h1         1 NND       0.028200
     24 H5          -3.1980     0.9160    -1.6170 h1         1 NND       0.034700
     25 H4          -3.9920     0.6250     1.3120 h1         1 NND       0.071700
     26 HA          -6.0770     1.0270     0.3500 ho         1 NND       0.426000
     27 H31         -4.7660    -1.0190    -1.1270 h1         1 NND       0.047700
     28 H3          -5.8950    -2.1890     0.4980 ho         1 NND       0.423000
     29 H2          -3.0580    -1.7360     1.2840 h1         1 NND       0.060700
     30 HB          -2.9180    -3.6920     0.1580 ho         1 NND       0.410000
     31 H1C1        -1.2460    -1.8500    -0.3640 h1         1 NND       0.039200
     32 H1C2        -2.3200    -1.3140    -1.6520 h1         1 NND       0.039200
     33 H8C1        -0.4670     0.4760    -1.7630 h1         1 NND       0.032700
     34 H8C2        -0.4430     1.6570    -0.4680 h1         1 NND       0.032700
     35 H7C1         0.5420     0.0380     1.0900 hc         1 NND       0.046200
     36 H7C2         0.6230    -1.1730    -0.1740 hc         1 NND       0.046200
     37 H9C1         2.0370     0.3400    -1.5620 hc         1 NND       0.036700
     38 H9C2         1.9990     1.5440    -0.2920 hc         1 NND       0.036700
     39 H101         3.0950    -0.0630     1.2750 hc         1 NND       0.037700
     40 H102         3.1080    -1.2840     0.0230 hc         1 NND       0.037700
     41 H141         4.5640     0.1810    -1.3930 hc         1 NND       0.037200
     42 H142         4.5570     1.4010    -0.1390 hc         1 NND       0.037200
     43 H131         5.6270    -0.2160     1.4430 hc         1 NND       0.037200
     44 H132         5.6300    -1.4390     0.1930 hc         1 NND       0.037200
     45 H121         7.1010     0.0130    -1.2240 hc         1 NND       0.037200
     46 H122         7.1010     1.2340     0.0300 hc         1 NND       0.037200
     47 H111         8.1570    -0.3950     1.6120 hc         1 NND       0.036700
     48 H112         8.1580    -1.6120     0.3570 hc         1 NND       0.036700
     49 H161         9.6710    -0.1730    -1.0470 hc         1 NND       0.031367
     50 H162         9.6720     1.0520     0.2160 hc         1 NND       0.031367
     51 H163        10.3980    -0.5250     0.5190 hc         1 NND       0.031367
@<TRIPOS>BOND
     1     1     2 1   
     2     1    21 1   
     3     2     3 1   
     4     2    22 1   
     5     2    23 1   
     6     3     4 1   
     7     3     9 1   
     8     3    24 1   
     9     4     5 1   
    10     4    20 1   
    11     4    25 1   
    12     5    26 1   
    13     6    20 1   
    14     6    28 1   
    15     7     8 1   
    16     7    12 1   
    17     7    20 1   
    18     7    29 1   
    19     8    30 1   
    20     9    10 1   
    21     9    12 1   
    22    10    11 1   
    23    10    33 1   
    24    10    34 1   
    25    11    13 1   
    26    11    35 1   
    27    11    36 1   
    28    12    31 1   
    29    12    32 1   
    30    13    14 1   
    31    13    37 1   
    32    13    38 1   
    33    14    15 1   
    34    14    39 1   
    35    14    40 1   
    36    15    16 1   
    37    15    41 1   
    38    15    42 1   
    39    16    17 1   
    40    16    43 1   
    41    16    44 1   
    42    17    19 1   
    43    17    45 1   
    44    17    46 1   
    45    18    19 1   
    46    18    49 1   
    47    18    50 1   
    48    18    51 1   
    49    19    47 1   
    50    19    48 1   
    51    20    27 1   
@<TRIPOS>SUBSTRUCTURE
     1 NND         1 TEMP              0 ****  ****    0 ROOT
