@<TRIPOS>MOLECULE
NNE
   74    75     1     0     0
SMALL
No Charge or Current Charge


@<TRIPOS>ATOM
      1 CAM         14.3850    -1.3850    -0.3750 c2         1 NNE      -0.244500
      2 CAK         13.0750    -1.4740    -0.7170 ce         1 NNE      -0.191900
      3 CAL         12.6120    -1.0830    -2.1200 c3         1 NNE      -0.032200
      4 CAN         13.0630    -2.0910    -3.1940 c3         1 NNE      -0.088100
      5 CAJ         12.0270    -1.8450     0.3060 c          1 NNE       0.594900
      6 OAA         12.2980    -2.6130     1.2220 o          1 NNE      -0.509600
      7 CAD         10.6800    -1.1750     0.2890 ca         1 NNE      -0.184600
      8 CAI         10.5330     0.2310     0.2180 ca         1 NNE       0.180000
      9 Cl1         11.9470     1.2950     0.2440 cl         1 NNE      -0.158000
     10 CAH          9.2440     0.8060     0.1910 ca         1 NNE       0.068500
     11 Cl2          9.0530     2.5650     0.1010 cl         1 NNE      -0.137500
     12 CAE          9.5300    -1.9840     0.3740 ca         1 NNE      -0.025500
     13 CAF          8.2490    -1.4120     0.3470 ca         1 NNE      -0.206500
     14 CAG          8.0980    -0.0130     0.2480 ca         1 NNE       0.170600
     15 OAW          6.8520     0.5870     0.2170 os         1 NNE      -0.292100
     16 CAT          5.6220    -0.1710     0.2740 c3         1 NNE       0.073600
     17 CAU          4.3730     0.7380     0.2200 c          1 NNE       0.602600
     18 OBA          4.4240     1.9600     0.1380 o          1 NNE      -0.558600
     19 NAV          3.1680     0.0680     0.2710 ns         1 NNE      -0.513400
     20 CAX          1.8590     0.7220     0.2340 c3         1 NNE       0.104500
     21 CAY          0.7110    -0.3010     0.3060 c3         1 NNE      -0.093400
     22 CAS         -0.6850     0.3580     0.2690 c3         1 NNE      -0.093400
     23 CAR         -1.8340    -0.6660     0.3410 c3         1 NNE       0.104500
     24 NAQ         -3.1420    -0.0110     0.3030 ns         1 NNE      -0.513400
     25 CAP         -4.3480    -0.6810     0.3510 c          1 NNE       0.602600
     26 OAZ         -4.3990    -1.9030     0.4290 o          1 NNE      -0.558600
     27 CAO         -5.5960     0.2290     0.2960 c3         1 NNE       0.073600
     28 OBH         -6.8270    -0.5290     0.3490 os         1 NNE      -0.292100
     29 CBE         -8.0730     0.0710     0.3100 ca         1 NNE       0.170600
     30 CBD         -9.2190    -0.7490     0.3700 ca         1 NNE       0.068500
     31 Cl3         -9.0280    -2.5040     0.5090 cl         1 NNE      -0.137500
     32 CBC        -10.5080    -0.1730     0.3320 ca         1 NNE       0.180000
     33 Cl4        -11.9220    -1.2240     0.5070 cl         1 NNE      -0.158000
     34 CBF         -8.2230     1.4710     0.2280 ca         1 NNE      -0.206500
     35 CBG         -9.5050     2.0420     0.1910 ca         1 NNE      -0.025500
     36 CBB        -10.6540     1.2300     0.2210 ca         1 NNE      -0.184600
     37 CBI        -12.0010     1.8980     0.1610 c          1 NNE       0.594900
     38 OBL        -12.2660     2.7780     0.9720 o          1 NNE      -0.509600
     39 CBJ        -13.0580     1.3970    -0.7970 ce         1 NNE      -0.191900
     40 CBK        -12.6050     0.8270    -2.1410 c3         1 NNE      -0.032200
     41 CBN        -13.0650     1.6870    -3.3330 c3         1 NNE      -0.088100
     42 CBM        -14.3650     1.3550    -0.4360 c2         1 NNE      -0.244500
     43 H1          15.1480    -1.0750    -1.0910 ha         1 NNE       0.175000
     44 H2          14.7360    -1.6170     0.6320 ha         1 NNE       0.175000
     45 H5          11.5210    -0.9940    -2.1800 hc         1 NNE       0.051450
     46 H6          13.0090    -0.0950    -2.3830 hc         1 NNE       0.051450
     47 H7          12.6610    -3.0880    -2.9790 hc         1 NNE       0.034867
     48 H8          12.7050    -1.7810    -4.1830 hc         1 NNE       0.034867
     49 H9          14.1570    -2.1590    -3.2320 hc         1 NNE       0.034867
     50 H10          9.6310    -3.0670     0.4460 ha         1 NNE       0.130500
     51 H11          7.3880    -2.0720     0.4030 ha         1 NNE       0.123000
     52 H12          5.5580    -0.8690    -0.5700 h1         1 NNE       0.053450
     53 H13          5.5670    -0.7510     1.2040 h1         1 NNE       0.053450
     54 H14          3.2030    -0.9430     0.3380 hn         1 NNE       0.313000
     55 H15          1.7860     1.4180     1.0800 h1         1 NNE       0.056700
     56 H16          1.7780     1.3020    -0.6960 h1         1 NNE       0.056700
     57 H17          0.8010    -1.0030    -0.5330 hc         1 NNE       0.048700
     58 H18          0.8090    -0.8870     1.2290 hc         1 NNE       0.048700
     59 H19         -0.7760     1.0600     1.1080 hc         1 NNE       0.048700
     60 H20         -0.7840     0.9440    -0.6540 hc         1 NNE       0.048700
     61 H21         -1.7610    -1.3620    -0.5060 h1         1 NNE       0.056700
     62 H22         -1.7530    -1.2440     1.2710 h1         1 NNE       0.056700
     63 H23         -3.1780     1.0000     0.2380 hn         1 NNE       0.313000
     64 H24         -5.5340     0.9240     1.1420 h1         1 NNE       0.053450
     65 H25         -5.5400     0.8100    -0.6320 h1         1 NNE       0.053450
     66 H26         -7.3620     2.1320     0.1910 ha         1 NNE       0.123000
     67 H27         -9.6050     3.1250     0.1220 ha         1 NNE       0.130500
     68 H29        -11.5150     0.7300    -2.1970 hc         1 NNE       0.051450
     69 H30        -13.0040    -0.1870    -2.2700 hc         1 NNE       0.051450
     70 H31        -14.1590     1.7500    -3.3710 hc         1 NNE       0.034867
     71 H32        -12.6610     2.7030    -3.2530 hc         1 NNE       0.034867
     72 H33        -12.7150     1.2510    -4.2770 hc         1 NNE       0.034867
     73 H34        -15.1330     0.9550    -1.1000 ha         1 NNE       0.175000
     74 H35        -14.7080     1.7150     0.5340 ha         1 NNE       0.175000
@<TRIPOS>BOND
     1     1     2 2   
     2     1    43 1   
     3     1    44 1   
     4     2     3 1   
     5     2     5 1   
     6     3     4 1   
     7     3    45 1   
     8     3    46 1   
     9     4    47 1   
    10     4    48 1   
    11     4    49 1   
    12     5     6 2   
    13     5     7 1   
    14     7     8 ar  
    15     7    12 ar  
    16     8     9 1   
    17     8    10 ar  
    18    10    11 1   
    19    10    14 ar  
    20    12    13 ar  
    21    12    50 1   
    22    13    14 ar  
    23    13    51 1   
    24    14    15 1   
    25    15    16 1   
    26    16    17 1   
    27    16    52 1   
    28    16    53 1   
    29    17    18 2   
    30    17    19 1   
    31    19    20 1   
    32    19    54 1   
    33    20    21 1   
    34    20    55 1   
    35    20    56 1   
    36    21    22 1   
    37    21    57 1   
    38    21    58 1   
    39    22    23 1   
    40    22    59 1   
    41    22    60 1   
    42    23    24 1   
    43    23    61 1   
    44    23    62 1   
    45    24    25 1   
    46    24    63 1   
    47    25    26 2   
    48    25    27 1   
    49    27    28 1   
    50    27    64 1   
    51    27    65 1   
    52    28    29 1   
    53    29    30 ar  
    54    29    34 ar  
    55    30    31 1   
    56    30    32 ar  
    57    32    33 1   
    58    32    36 ar  
    59    34    35 ar  
    60    34    66 1   
    61    35    36 ar  
    62    35    67 1   
    63    36    37 1   
    64    37    38 2   
    65    37    39 1   
    66    39    40 1   
    67    39    42 2   
    68    40    41 1   
    69    40    68 1   
    70    40    69 1   
    71    41    70 1   
    72    41    71 1   
    73    41    72 1   
    74    42    73 1   
    75    42    74 1   
@<TRIPOS>SUBSTRUCTURE
     1 NNE         1 TEMP              0 ****  ****    0 ROOT
