@<TRIPOS>MOLECULE
NNE
   74    75     1     0     0
SMALL
bcc


@<TRIPOS>ATOM
      1 CAM         14.1280    -1.1250    -0.0700 c2         1 NNE      -0.144500
      2 CAK         12.8510    -1.1530    -0.4490 ce         1 NNE      -0.191900
      3 CAL         12.4240    -1.0390    -1.8870 c3         1 NNE      -0.032200
      4 CAN         11.9000    -2.3650    -2.4340 c3         1 NNE      -0.088100
      5 CAJ         11.8090    -1.3850     0.5930 c          1 NNE       0.594900
      6 OAA         12.0250    -2.0500     1.5830 o          1 NNE      -0.509600
      7 CAD         10.4320    -0.8410     0.3740 ca         1 NNE      -0.184600
      8 CAI         10.1660     0.5090     0.1510 ca         1 NNE       0.088400
      9 CL1         11.4580     1.6460     0.1350 cl         1 NNE      -0.066400
     10 CAH          8.8660     0.9600    -0.0160 ca         1 NNE      -0.023100
     11 CL2          8.5320     2.6240    -0.2680 cl         1 NNE      -0.045900
     12 CAE          9.3570    -1.7150     0.4530 ca         1 NNE      -0.043500
     13 CAF          8.0540    -1.2860     0.2710 ca         1 NNE      -0.224500
     14 CAG          7.7920     0.0590     0.0340 ca         1 NNE       0.170600
     15 OAW          6.5800     0.5840    -0.1450 os         1 NNE      -0.268900
     16 CAT          5.4590    -0.2660    -0.0790 c3         1 NNE       0.050400
     17 CAU          4.2320     0.5920    -0.3500 c          1 NNE       0.669600
     18 OBA          4.3030     1.6400    -0.9670 o          1 NNE      -0.558600
     19 NAV          3.0930     0.0580     0.1080 ns         1 NNE      -0.580400
     20 CAX          1.7950     0.6760    -0.0650 c3         1 NNE       0.104500
     21 CAY          0.6880    -0.3660    -0.0510 c3         1 NNE      -0.093400
     22 CAS         -0.6860     0.2820    -0.1580 c3         1 NNE      -0.093400
     23 CAR         -1.7970    -0.7550    -0.1510 c3         1 NNE       0.104500
     24 NAQ         -3.0950    -0.1160    -0.2340 ns         1 NNE      -0.580400
     25 CAP         -4.2260    -0.6960     0.1810 c          1 NNE       0.669600
     26 OAZ         -4.2930    -1.8260     0.6320 o          1 NNE      -0.558600
     27 CAO         -5.4430     0.2150     0.1120 c3         1 NNE       0.050400
     28 OBH         -6.5750    -0.6140    -0.0060 os         1 NNE      -0.268900
     29 CBE         -7.7870    -0.0720     0.1130 ca         1 NNE       0.170600
     30 CBD         -8.8670    -0.9640     0.0630 ca         1 NNE      -0.023100
     31 CL3         -8.5410    -2.6390    -0.1230 cl         1 NNE      -0.045900
     32 CBC        -10.1670    -0.4970     0.1770 ca         1 NNE       0.088400
     33 CL4        -11.4680    -1.6240     0.1640 cl         1 NNE      -0.066400
     34 CBF         -8.0430     1.2840     0.2880 ca         1 NNE      -0.224500
     35 CBG         -9.3460     1.7290     0.4220 ca         1 NNE      -0.043500
     36 CBB        -10.4270     0.8610     0.3490 ca         1 NNE      -0.184600
     37 CBI        -11.8040     1.4230     0.5200 c          1 NNE       0.594900
     38 OBL        -12.0350     2.1150     1.4880 o          1 NNE      -0.509600
     39 CBJ        -12.8240     1.1700    -0.5370 ce         1 NNE      -0.191900
     40 CBK        -12.3670     1.0050    -1.9610 c3         1 NNE      -0.032200
     41 CBN        -11.8090     2.3050    -2.5370 c3         1 NNE      -0.088100
     42 CBM        -14.1100     1.1690    -0.1860 c2         1 NNE      -0.144500
     43 H1          14.9210    -0.9720    -0.7900 ha         1 NNE       0.125000
     44 H2          14.4250    -1.2330     0.9650 ha         1 NNE       0.125000
     45 H5          11.6570    -0.2710    -2.0090 hc         1 NNE       0.051450
     46 H6          13.2780    -0.7100    -2.4810 hc         1 NNE       0.051450
     47 H7          11.0250    -2.7150    -1.8840 hc         1 NNE       0.034867
     48 H8          11.6070    -2.2610    -3.4790 hc         1 NNE       0.034867
     49 H9          12.6630    -3.1420    -2.3740 hc         1 NNE       0.034867
     50 H10          9.5380    -2.7650     0.6390 ha         1 NNE       0.148500
     51 H11          7.2540    -2.0100     0.3220 ha         1 NNE       0.141000
     52 H12          5.5120    -1.0540    -0.8400 h1         1 NNE       0.053450
     53 H13          5.3890    -0.7520     0.8990 h1         1 NNE       0.053450
     54 H14          3.1420    -0.7620     0.6920 hn         1 NNE       0.313000
     55 H15          1.6200     1.4140     0.7240 h1         1 NNE       0.056700
     56 H16          1.7870     1.2140    -1.0130 h1         1 NNE       0.056700
     57 H17          0.8370    -1.0670    -0.8770 hc         1 NNE       0.048700
     58 H18          0.7420    -0.9510     0.8730 hc         1 NNE       0.048700
     59 H19         -0.8330     0.9750     0.6760 hc         1 NNE       0.048700
     60 H20         -0.7410     0.8760    -1.0760 hc         1 NNE       0.048700
     61 H21         -1.6620    -1.4530    -0.9830 h1         1 NNE       0.056700
     62 H22         -1.7520    -1.3410     0.7680 h1         1 NNE       0.056700
     63 H23         -3.1430     0.7860    -0.6820 hn         1 NNE       0.313000
     64 H24         -5.4730     0.8030     1.0370 h1         1 NNE       0.053450
     65 H25         -5.3730     0.9130    -0.7280 h1         1 NNE       0.053450
     66 H26         -7.2400     2.0060     0.3240 ha         1 NNE       0.141000
     67 H27         -9.5230     2.7870     0.5650 ha         1 NNE       0.148500
     68 H29        -11.6120     0.2210    -2.0420 hc         1 NNE       0.051450
     69 H30        -13.2140     0.6730    -2.5630 hc         1 NNE       0.051450
     70 H31        -12.5560     3.0980    -2.5110 hc         1 NNE       0.034867
     71 H32        -10.9350     2.6520    -1.9820 hc         1 NNE       0.034867
     72 H33        -11.5010     2.1650    -3.5730 hc         1 NNE       0.034867
     73 H34        -14.8890     1.0020    -0.9180 ha         1 NNE       0.125000
     74 H35        -14.4280     1.3120     0.8390 ha         1 NNE       0.125000
@<TRIPOS>BOND
     1     1     2 2   
     2     1    43 1   
     3     1    44 1   
     4     2     3 1   
     5     2     5 1   
     6     3     4 1   
     7     3    45 1   
     8     3    46 1   
     9     4    47 1   
    10     4    48 1   
    11     4    49 1   
    12     5     6 2   
    13     5     7 1   
    14     7     8 ar  
    15     7    12 ar  
    16     8     9 1   
    17     8    10 ar  
    18    10    11 1   
    19    10    14 ar  
    20    12    13 ar  
    21    12    50 1   
    22    13    14 ar  
    23    13    51 1   
    24    14    15 1   
    25    15    16 1   
    26    16    17 1   
    27    16    52 1   
    28    16    53 1   
    29    17    18 2   
    30    17    19 1   
    31    19    20 1   
    32    19    54 1   
    33    20    21 1   
    34    20    55 1   
    35    20    56 1   
    36    21    22 1   
    37    21    57 1   
    38    21    58 1   
    39    22    23 1   
    40    22    59 1   
    41    22    60 1   
    42    23    24 1   
    43    23    61 1   
    44    23    62 1   
    45    24    25 1   
    46    24    63 1   
    47    25    26 2   
    48    25    27 1   
    49    27    28 1   
    50    27    64 1   
    51    27    65 1   
    52    28    29 1   
    53    29    30 ar  
    54    29    34 ar  
    55    30    31 1   
    56    30    32 ar  
    57    32    33 1   
    58    32    36 ar  
    59    34    35 ar  
    60    34    66 1   
    61    35    36 ar  
    62    35    67 1   
    63    36    37 1   
    64    37    38 2   
    65    37    39 1   
    66    39    40 1   
    67    39    42 2   
    68    40    41 1   
    69    40    68 1   
    70    40    69 1   
    71    41    70 1   
    72    41    71 1   
    73    41    72 1   
    74    42    73 1   
    75    42    74 1   
@<TRIPOS>SUBSTRUCTURE
     1 NNE         1 TEMP              0 ****  ****    0 ROOT
