@<TRIPOS>MOLECULE
NNF
   38    40     1     0     0
SMALL
No Charge or Current Charge


@<TRIPOS>ATOM
      1 CAA          4.2510    -2.2700     1.7530 c3         1 NNF      -0.050900
      2 OAB          5.4030     2.0340    -0.2880 o          1 NNF      -0.557000
      3 CAD         -4.9780    -0.9750    -0.2220 ca         1 NNF      -0.124500
      4 CAE         -4.4770     0.6780     1.4900 ca         1 NNF      -0.124500
      5 CAF         -3.6490    -0.8990    -0.6800 ca         1 NNF      -0.127000
      6 CAG         -3.1480     0.7520     1.0300 ca         1 NNF      -0.127000
      7 CAH          4.8650    -0.0320     0.7200 cc         1 NNF      -0.423200
      8 CAI         -0.5490     1.2540    -0.3550 c6         1 NNF       0.171800
      9 CAJ         -0.5710    -1.2320    -0.6430 c6         1 NNF       0.171800
     10 CAK          0.6320     1.3470    -1.3760 c6         1 NNF       0.223300
     11 CAL          0.6060    -1.1040    -1.6640 c6         1 NNF       0.223300
     12 NAM          2.8050    -1.0650     0.1310 nd         1 NNF      -0.745300
     13 NAN          3.4640     1.0160    -0.7830 ns         1 NNF      -0.442400
     14 CAO          3.9920    -1.0850     0.8610 cd         1 NNF       0.241400
     15 CAP         -5.3870    -0.1850     0.8630 ca         1 NNF       0.145000
     16 CAQ         -2.7200    -0.0380    -0.0600 ca         1 NNF       0.264000
     17 CAR          2.5990    -0.0050    -0.6370 cc         1 NNF       0.752800
     18 CAS          4.6330     1.1010    -0.1440 c          1 NNF       0.581200
     19 NAT         -1.3890     0.0230    -0.5370 nh         1 NNF      -0.782400
     20 NAU          1.4590     0.0970    -1.3910 nh         1 NNF      -0.768600
     21 HAA          3.3260    -2.6220     2.2250 hc         1 NNF       0.054367
     22 HAAA         4.6750    -3.1020     1.1800 hc         1 NNF       0.054367
     23 HAAB         4.9560    -2.0180     2.5530 hc         1 NNF       0.054367
     24 HAD         -5.6880    -1.6390    -0.7070 ha         1 NNF       0.131500
     25 HAE         -4.7990     1.2870     2.3320 ha         1 NNF       0.131500
     26 HAF         -3.3430    -1.5040    -1.5290 ha         1 NNF       0.118500
     27 HAG         -2.4540     1.4180     1.5330 ha         1 NNF       0.118500
     28 HAH          5.8020    -0.0070     1.2610 ha         1 NNF       0.214000
     29 HAI         -0.1310     1.2690     0.6630 h1         1 NNF       0.051200
     30 HAIA        -1.1690     2.1560    -0.4670 h1         1 NNF       0.051200
     31 HAJ         -1.1960    -2.0830    -0.9480 h1         1 NNF       0.051200
     32 HAJA        -0.1530    -1.4810     0.3430 h1         1 NNF       0.051200
     33 HAK          0.2110     1.5210    -2.3770 h1         1 NNF       0.068200
     34 HAKA         1.2330     2.2350    -1.1310 h1         1 NNF       0.068200
     35 HAL          1.1980    -2.0310    -1.6520 h1         1 NNF       0.068200
     36 HALA         0.1780    -1.0270    -2.6740 h1         1 NNF       0.068200
     37 HNAN         3.2400     1.7480    -1.4330 hn         1 NNF       0.321500
     38 FAC         -6.6620    -0.2560     1.3040 f          1 NNF      -0.179000
@<TRIPOS>BOND
     1     1    14 1   
     2     1    21 1   
     3     1    22 1   
     4     1    23 1   
     5     2    18 2   
     6     3     5 ar  
     7     3    15 ar  
     8     3    24 1   
     9     4     6 ar  
    10     4    15 ar  
    11     4    25 1   
    12     5    16 ar  
    13     5    26 1   
    14     6    16 ar  
    15     6    27 1   
    16     7    14 2   
    17     7    18 1   
    18     7    28 1   
    19     8    10 1   
    20     8    19 1   
    21     8    29 1   
    22     8    30 1   
    23     9    11 1   
    24     9    19 1   
    25     9    31 1   
    26     9    32 1   
    27    10    20 1   
    28    10    33 1   
    29    10    34 1   
    30    11    20 1   
    31    11    35 1   
    32    11    36 1   
    33    12    14 1   
    34    12    17 2   
    35    13    17 1   
    36    13    18 1   
    37    13    37 1   
    38    15    38 1   
    39    16    19 1   
    40    17    20 1   
@<TRIPOS>SUBSTRUCTURE
     1 NNF         1 TEMP              0 ****  ****    0 ROOT
