@<TRIPOS>MOLECULE
NNF
   38    40     1     0     0
SMALL
abcg2


@<TRIPOS>ATOM
      1 CAA          4.9550    -2.5040     0.8860 c3         1 NNF      -0.050900
      2 OAB          5.1150     2.3260     0.3120 o          1 NNF      -0.557000
      3 CAD         -5.0320    -1.0430    -0.2280 ca         1 NNF      -0.124500
      4 CAE         -4.7750     1.0970     0.8390 ca         1 NNF      -0.124500
      5 CAF         -3.6870    -1.0360    -0.5540 ca         1 NNF      -0.127000
      6 CAG         -3.4210     1.0870     0.5230 ca         1 NNF      -0.127000
      7 CAH          5.1500    -0.0300     0.6310 cc         1 NNF      -0.423200
      8 CAI         -0.7400     1.2200    -0.3740 c6         1 NNF       0.171800
      9 CAJ         -0.7400    -1.1750    -0.1660 c6         1 NNF       0.171800
     10 CAK          0.5660     1.1480    -1.1510 c6         1 NNF       0.223300
     11 CAL          0.5640    -1.2520    -0.9380 c6         1 NNF       0.223300
     12 NAM          3.1340    -1.1850     0.0460 nd         1 NNF      -0.745300
     13 NAN          3.2710     1.1240    -0.2020 ns         1 NNF      -0.442400
     14 CAO          4.4030    -1.1680     0.5050 cd         1 NNF       0.241400
     15 CAP         -5.5610     0.0300     0.4650 ca         1 NNF       0.145000
     16 CAQ         -2.8510     0.0250    -0.1840 ca         1 NNF       0.264000
     17 CAR          2.5850    -0.0440    -0.3000 cc         1 NNF       0.752800
     18 CAS          4.5830     1.2240     0.2620 c          1 NNF       0.581200
     19 NAT         -1.5010     0.0040    -0.5580 nh         1 NNF      -0.782400
     20 NAU          1.3250    -0.0260    -0.7660 nh         1 NNF      -0.768600
     21 HAA          4.3590    -2.9390     1.6900 hc         1 NNF       0.054367
     22 HAAA         4.9000    -3.1900     0.0400 hc         1 NNF       0.054367
     23 HAAB         5.9890    -2.4390     1.2170 hc         1 NNF       0.054367
     24 HAD         -5.6620    -1.8700    -0.5270 ha         1 NNF       0.131500
     25 HAE         -5.2000     1.9310     1.3840 ha         1 NNF       0.131500
     26 HAF         -3.2910    -1.8660    -1.1240 ha         1 NNF       0.118500
     27 HAG         -2.8210     1.9250     0.8490 ha         1 NNF       0.118500
     28 HAH          6.1630    -0.0590     1.0050 ha         1 NNF       0.214000
     29 HAI         -0.5190     1.4220     0.6850 h1         1 NNF       0.051200
     30 HAIA        -1.3070     2.0680    -0.7610 h1         1 NNF       0.051200
     31 HAJ         -1.3100    -2.0780    -0.3760 h1         1 NNF       0.051200
     32 HAJA        -0.5260    -1.1650     0.9130 h1         1 NNF       0.051200
     33 HAK          0.3540     1.0970    -2.2230 h1         1 NNF       0.068200
     34 HAKA         1.1090     2.0740    -0.9800 h1         1 NNF       0.068200
     35 HAL          1.1500    -2.0960    -0.5910 h1         1 NNF       0.068200
     36 HALA         0.3560    -1.3910    -2.0030 h1         1 NNF       0.068200
     37 HNAN         2.8500     1.9980    -0.4790 hn         1 NNF       0.321500
     38 FAC         -6.8710     0.0300     0.7760 f          1 NNF      -0.179000
@<TRIPOS>BOND
     1     1    14 1   
     2     1    21 1   
     3     1    22 1   
     4     1    23 1   
     5     2    18 2   
     6     3     5 ar  
     7     3    15 ar  
     8     3    24 1   
     9     4     6 ar  
    10     4    15 ar  
    11     4    25 1   
    12     5    16 ar  
    13     5    26 1   
    14     6    16 ar  
    15     6    27 1   
    16     7    14 2   
    17     7    18 1   
    18     7    28 1   
    19     8    10 1   
    20     8    19 1   
    21     8    29 1   
    22     8    30 1   
    23     9    11 1   
    24     9    19 1   
    25     9    31 1   
    26     9    32 1   
    27    10    20 1   
    28    10    33 1   
    29    10    34 1   
    30    11    20 1   
    31    11    35 1   
    32    11    36 1   
    33    12    14 1   
    34    12    17 2   
    35    13    17 1   
    36    13    18 1   
    37    13    37 1   
    38    15    38 1   
    39    16    19 1   
    40    17    20 1   
@<TRIPOS>SUBSTRUCTURE
     1 NNF         1 TEMP              0 ****  ****    0 ROOT
