@<TRIPOS>MOLECULE
NNH
   23    22     1     0     0
SMALL
bcc


@<TRIPOS>ATOM
      1 N            4.6550    48.9750    -1.2700 n8         1 NNH      -0.886800
      2 CA           4.0890    49.0940    -2.6050 c3         1 NNH       0.016500
      3 C            2.7210    49.8220    -2.5710 c          1 NNH       0.928600
      4 O            2.1300    49.8750    -1.4750 o          1 NNH      -0.833300
      5 CB           3.9380    47.7580    -3.3480 c3         1 NNH      -0.097400
      6 CG           2.9320    46.8080    -2.7160 c3         1 NNH       0.207800
      7 ND           2.9580    45.5340    -3.4170 nu         1 NNH      -0.839200
      8 CE           2.2010    44.4520    -3.0570 c2         1 NNH       0.766100
      9 NH1          1.0300    44.8040    -2.3800 nu         1 NNH      -0.616700
     10 NH2          2.5910    43.2650    -3.3170 n2         1 NNH      -0.905100
     11 OH1          0.1150    43.7730    -2.2800 oh         1 NNH      -0.418300
     12 OXT          2.3160    50.2600    -3.6660 o          1 NNH      -0.833300
     13 H            5.3260    48.2180    -1.2370 hn         1 NNH       0.325300
     14 H2           3.9120    48.7450    -0.6230 hn         1 NNH       0.325300
     15 HA           4.7670    49.7040    -3.2130 h1         1 NNH       0.051700
     16 HB2          3.6520    47.9470    -4.3860 hc         1 NNH       0.031200
     17 HB3          4.9180    47.2660    -3.3820 hc         1 NNH       0.031200
     18 HG2          3.1510    46.6840    -1.6490 h1         1 NNH       0.051700
     19 HG3          1.9340    47.2460    -2.7890 h1         1 NNH       0.051700
     20 HD           3.8710    45.2530    -3.7420 hn         1 NNH       0.418800
     21 HH1          0.5600    45.6170    -2.7590 hn         1 NNH       0.423800
     22 HH2          1.8750    42.5940    -3.0690 hn         1 NNH       0.385400
     23 HO1          0.0640    43.5790    -1.3370 ho         1 NNH       0.417000
@<TRIPOS>BOND
     1     1     2 1   
     2     1    13 1   
     3     1    14 1   
     4     2     3 1   
     5     2     5 1   
     6     2    15 1   
     7     3     4 1   
     8     3    12 1   
     9     5     6 1   
    10     5    16 1   
    11     5    17 1   
    12     6     7 1   
    13     6    18 1   
    14     6    19 1   
    15     7     8 1   
    16     7    20 1   
    17     8     9 1   
    18     8    10 2   
    19     9    11 1   
    20     9    21 1   
    21    10    22 1   
    22    11    23 1   
@<TRIPOS>SUBSTRUCTURE
     1 NNH         1 TEMP              0 ****  ****    0 ROOT
