@<TRIPOS>MOLECULE
NNH
   23    22     1     0     0
SMALL
No Charge or Current Charge


@<TRIPOS>ATOM
      1 N            4.7680    48.9990    -1.3010 n8         1 NNH      -0.886800
      2 CA           4.0590    49.1520    -2.6290 c3         1 NNH       0.016500
      3 C            2.6900    49.9670    -2.6510 c          1 NNH       0.928600
      4 O            1.8820    49.7970    -1.7410 o          1 NNH      -0.833300
      5 CB           3.9170    47.7700    -3.3230 c3         1 NNH      -0.097400
      6 CG           2.9410    46.7910    -2.6320 c3         1 NNH       0.207800
      7 ND           2.9010    45.5170    -3.3640 nu         1 NNH      -0.839200
      8 CE           2.2540    44.4170    -2.9370 c2         1 NNH       0.766100
      9 NH1          1.0270    44.6250    -2.3600 nu         1 NNH      -0.616700
     10 NH2          2.6910    43.2770    -3.2240 n2         1 NNH      -0.905100
     11 OH1          0.0770    43.4940    -2.3770 oh         1 NNH      -0.418300
     12 OXT          2.5310    50.8230    -3.5160 o          1 NNH      -0.833300
     13 H            5.5400    48.3310    -1.3980 hn         1 NNH       0.325300
     14 H2           4.1280    48.5680    -0.6260 hn         1 NNH       0.325300
     15 HA           4.7460    49.7340    -3.2600 h1         1 NNH       0.051700
     16 HB2          3.5810    47.9340    -4.3550 hc         1 NNH       0.031200
     17 HB3          4.9080    47.3020    -3.3920 hc         1 NNH       0.031200
     18 HG2          3.2700    46.6140    -1.5990 h1         1 NNH       0.051700
     19 HG3          1.9380    47.2360    -2.5980 h1         1 NNH       0.051700
     20 HD           3.7340    45.2810    -3.8900 hn         1 NNH       0.418800
     21 HH1          0.5800    45.4710    -2.7130 hn         1 NNH       0.423800
     22 HH2          1.9580    42.6420    -2.8820 hn         1 NNH       0.385400
     23 HO1         -0.4140    43.5310    -1.5200 ho         1 NNH       0.417000
@<TRIPOS>BOND
     1     1     2 1   
     2     1    13 1   
     3     1    14 1   
     4     2     3 1   
     5     2     5 1   
     6     2    15 1   
     7     3     4 1   
     8     3    12 1   
     9     5     6 1   
    10     5    16 1   
    11     5    17 1   
    12     6     7 1   
    13     6    18 1   
    14     6    19 1   
    15     7     8 1   
    16     7    20 1   
    17     8     9 1   
    18     8    10 2   
    19     9    11 1   
    20     9    21 1   
    21    10    22 1   
    22    11    23 1   
@<TRIPOS>SUBSTRUCTURE
     1 NNH         1 TEMP              0 ****  ****    0 ROOT
