@<TRIPOS>MOLECULE
NNI
   37    39     1     0     0
SMALL
bcc


@<TRIPOS>ATOM
      1 C13         10.7740    65.3510    61.6990 ca         1 NNI      -0.136500
      2 C14         10.3160    66.0430    60.5870 ca         1 NNI      -0.083000
      3 C15          9.0440    65.7910    60.0980 ca         1 NNI       0.048900
      4 I15          8.3390    66.8620    58.4320 i          1 NNI      -0.172900
      5 C16          8.2240    64.8510    60.7030 ca         1 NNI      -0.083000
      6 C17          8.6950    64.1480    61.8010 ca         1 NNI      -0.136500
      7 C12          9.9690    64.3910    62.3010 ca         1 NNI       0.049600
      8 N2          10.3800    63.6790    63.4490 ns         1 NNI      -0.410100
      9 C11         11.5060    62.9680    63.6090 cs         1 NNI       0.634500
     10 S1          11.7770    62.0270    64.9510 s          1 NNI      -0.628400
     11 O3          12.3370    63.1030    62.6010 os         1 NNI      -0.379900
     12 C10         13.4940    62.2750    62.5080 c3         1 NNI       0.132400
     13 C9          14.2440    62.6950    61.2580 c3         1 NNI       0.106000
     14 N1          13.3830    62.8310    60.1060 n          1 NNI      -0.524400
     15 C8          13.0690    64.0490    59.5160 c          1 NNI       0.734100
     16 O2          13.5340    65.1160    59.8250 o          1 NNI      -0.565000
     17 C2          12.0850    63.7440    58.4530 ca         1 NNI      -0.145600
     18 C3          11.4460    64.5820    57.5660 ca         1 NNI      -0.062500
     19 C4          10.5600    63.9970    56.6640 ca         1 NNI      -0.114000
     20 C5          10.3360    62.6230    56.6630 ca         1 NNI      -0.114000
     21 C6          10.9900    61.7860    57.5650 ca         1 NNI      -0.062500
     22 C1          11.8630    62.3770    58.4520 ca         1 NNI      -0.145600
     23 C7          12.6990    61.7790    59.5180 c          1 NNI       0.734100
     24 O1          12.7960    60.6210    59.8410 o          1 NNI      -0.565000
     25 H13         11.7540    65.5810    62.0920 ha         1 NNI       0.151500
     26 H14         10.9580    66.7820    60.1280 ha         1 NNI       0.153000
     27 H16          7.2290    64.6490    60.3320 ha         1 NNI       0.153000
     28 H17          8.0610    63.4040    62.2680 ha         1 NNI       0.151500
     29 H2           9.6860    63.5360    64.1680 hn         1 NNI       0.360500
     30 H101        14.1370    62.4050    63.3800 h1         1 NNI       0.081200
     31 H102        13.1870    61.2300    62.4650 h1         1 NNI       0.081200
     32 H9C1        14.7350    63.6540    61.4100 h1         1 NNI       0.079200
     33 H9C2        15.0240    61.9580    61.0620 h1         1 NNI       0.079200
     34 H6          10.8150    60.7180    57.5640 ha         1 NNI       0.157000
     35 H5           9.6420    62.2000    55.9500 ha         1 NNI       0.143500
     36 H4          10.0350    64.6200    55.9520 ha         1 NNI       0.143500
     37 H3          11.6200    65.6500    57.5650 ha         1 NNI       0.157000
@<TRIPOS>BOND
     1     1     2 ar  
     2     1     7 ar  
     3     1    25 1   
     4     2     3 ar  
     5     2    26 1   
     6     3     4 1   
     7     3     5 ar  
     8     5     6 ar  
     9     5    27 1   
    10     6     7 ar  
    11     6    28 1   
    12     7     8 1   
    13     8     9 1   
    14     8    29 1   
    15     9    10 2   
    16     9    11 1   
    17    11    12 1   
    18    12    13 1   
    19    12    30 1   
    20    12    31 1   
    21    13    14 1   
    22    13    32 1   
    23    13    33 1   
    24    14    15 1   
    25    14    23 1   
    26    15    16 2   
    27    15    17 1   
    28    17    18 ar  
    29    17    22 ar  
    30    18    19 ar  
    31    18    37 1   
    32    19    20 ar  
    33    19    36 1   
    34    20    21 ar  
    35    20    35 1   
    36    21    22 ar  
    37    21    34 1   
    38    22    23 1   
    39    23    24 2   
@<TRIPOS>SUBSTRUCTURE
     1 NNI         1 TEMP              0 ****  ****    0 ROOT
