@<TRIPOS>MOLECULE
NNI
   37    39     1     0     0
SMALL
No Charge or Current Charge


@<TRIPOS>ATOM
      1 C13         10.7400    65.3240    61.6870 ca         1 NNI      -0.118500
      2 C14         10.2900    66.0870    60.5940 ca         1 NNI      -0.065000
      3 C15          8.9940    65.8950    60.0930 ca         1 NNI       0.186000
      4 I15          8.3130    67.0500    58.3930 i          1 NNI      -0.310000
      5 C16          8.1380    64.9590    60.6950 ca         1 NNI      -0.065000
      6 C17          8.5860    64.2020    61.7930 ca         1 NNI      -0.118500
      7 C12          9.8960    64.3660    62.2810 ca         1 NNI       0.049600
      8 N2          10.3280    63.5720    63.3710 ns         1 NNI      -0.343100
      9 C11         11.5180    62.9700    63.6650 cs         1 NNI       0.567500
     10 S1          11.7870    62.1370    65.0920 s          1 NNI      -0.628400
     11 O3          12.3880    63.0890    62.6370 os         1 NNI      -0.403100
     12 C10         13.6220    62.3490    62.5990 c3         1 NNI       0.155600
     13 C9          14.3200    62.6060    61.2410 c3         1 NNI       0.106000
     14 N1          13.3820    62.7740    60.1080 n          1 NNI      -0.390400
     15 C8          13.0480    64.0160    59.5670 c          1 NNI       0.591600
     16 O2          13.4780    65.1100    59.9020 o          1 NNI      -0.489500
     17 C2          12.0740    63.7130    58.4800 ca         1 NNI      -0.145600
     18 C3          11.3880    64.5780    57.6160 ca         1 NNI      -0.044500
     19 C4          10.5040    64.0050    56.6760 ca         1 NNI      -0.096000
     20 C5          10.3270    62.6010    56.6140 ca         1 NNI      -0.096000
     21 C6          11.0320    61.7460    57.4900 ca         1 NNI      -0.044500
     22 C1          11.9030    62.3350    58.4180 ca         1 NNI      -0.145600
     23 C7          12.7610    61.7060    59.4640 c          1 NNI       0.591600
     24 O1          12.8900    60.5170    59.7160 o          1 NNI      -0.489500
     25 H13         11.7440    65.4880    62.0730 ha         1 NNI       0.133500
     26 H14         10.9460    66.8210    60.1350 ha         1 NNI       0.135000
     27 H16          7.1320    64.8200    60.3080 ha         1 NNI       0.135000
     28 H17          7.9200    63.4720    62.2490 ha         1 NNI       0.133500
     29 H2           9.6230    63.4240    64.0830 hn         1 NNI       0.360500
     30 H101        14.2900    62.6340    63.4230 h1         1 NNI       0.081200
     31 H102        13.4160    61.2740    62.6840 h1         1 NNI       0.081200
     32 H9C1        14.9330    63.5120    61.3340 h1         1 NNI       0.079200
     33 H9C2        15.0060    61.7760    61.0270 h1         1 NNI       0.079200
     34 H6          10.9000    60.6670    57.4480 ha         1 NNI       0.139000
     35 H5           9.6420    62.1760    55.8840 ha         1 NNI       0.125500
     36 H4           9.9540    64.6500    55.9940 ha         1 NNI       0.125500
     37 H3          11.5300    65.6550    57.6690 ha         1 NNI       0.139000
@<TRIPOS>BOND
     1     1     2 ar  
     2     1     7 ar  
     3     1    25 1   
     4     2     3 ar  
     5     2    26 1   
     6     3     4 1   
     7     3     5 ar  
     8     5     6 ar  
     9     5    27 1   
    10     6     7 ar  
    11     6    28 1   
    12     7     8 1   
    13     8     9 1   
    14     8    29 1   
    15     9    10 2   
    16     9    11 1   
    17    11    12 1   
    18    12    13 1   
    19    12    30 1   
    20    12    31 1   
    21    13    14 1   
    22    13    32 1   
    23    13    33 1   
    24    14    15 1   
    25    14    23 1   
    26    15    16 2   
    27    15    17 1   
    28    17    18 ar  
    29    17    22 ar  
    30    18    19 ar  
    31    18    37 1   
    32    19    20 ar  
    33    19    36 1   
    34    20    21 ar  
    35    20    35 1   
    36    21    22 ar  
    37    21    34 1   
    38    22    23 1   
    39    23    24 2   
@<TRIPOS>SUBSTRUCTURE
     1 NNI         1 TEMP              0 ****  ****    0 ROOT
