@<TRIPOS>MOLECULE
NNJ
   20    20     1     0     0
SMALL
abcg2


@<TRIPOS>ATOM
      1 C12          2.1780     0.6040    -0.4160 c3         1 NNJ       0.196100
      2 C13          0.7980     0.0740    -0.1270 ca         1 NNJ      -0.075300
      3 C17         -0.2980     0.9040    -0.2420 ca         1 NNJ      -0.033300
      4 C19         -1.7730    -0.8160     0.3150 ca         1 NNJ      -0.068000
      5 C20         -0.7220    -1.6930     0.4590 ca         1 NNJ      -0.115000
      6 C21          0.5710    -1.2490     0.2400 ca         1 NNJ       0.024000
      7 N26          3.1850    -0.1050     0.3420 n8         1 NNJ      -1.009200
      8 N27         -1.5420     0.4560    -0.0280 na         1 NNJ       0.072300
      9 H12          2.3730     0.4460    -1.4800 h1         1 NNJ       0.063200
     10 H12A         2.1760     1.6910    -0.2690 h1         1 NNJ       0.063200
     11 H17         -0.2030     1.9480    -0.5040 h4         1 NNJ       0.180000
     12 H18         -2.8920     1.4650    -1.2700 h1         1 NNJ       0.096367
     13 H18A        -3.5340     0.9980     0.3180 h1         1 NNJ       0.096367
     14 H18B        -2.4010     2.3520     0.1920 h1         1 NNJ       0.096367
     15 H19         -2.8010    -1.1020     0.4750 h4         1 NNJ       0.185000
     16 H20         -0.9270    -2.7140     0.7440 ha         1 NNJ       0.179000
     17 H21          1.4100    -1.9200     0.3580 ha         1 NNJ       0.188000
     18 HN26         4.1000     0.1110    -0.0270 hn         1 NNJ       0.425500
     19 HN2A         3.1820     0.2110     1.3030 hn         1 NNJ       0.425500
     20 C18         -2.6680     1.3800    -0.2100 c3         1 NNJ       0.011900
@<TRIPOS>BOND
     1     1     2 1   
     2     1     7 1   
     3     1     9 1   
     4     1    10 1   
     5     2     3 ar  
     6     2     6 ar  
     7     3     8 2   
     8     3    11 1   
     9     4     5 ar  
    10     4     8 1   
    11     4    15 1   
    12     5     6 ar  
    13     5    16 1   
    14     6    17 1   
    15     7    18 1   
    16     7    19 1   
    17     8    20 1   
    18    12    20 1   
    19    13    20 1   
    20    14    20 1   
@<TRIPOS>SUBSTRUCTURE
     1 NNJ         1 TEMP              0 ****  ****    0 ROOT
