@<TRIPOS>MOLECULE
NNJ
   20    20     1     0     0
SMALL
No Charge or Current Charge


@<TRIPOS>ATOM
      1 C12          2.2540     0.3840    -0.5500 c3         1 NNJ       0.196100
      2 C13          0.8280    -0.0560    -0.2530 ca         1 NNJ      -0.075300
      3 C17         -0.2290     0.8800    -0.2600 ca         1 NNJ      -0.033300
      4 C19         -1.8120    -0.8580     0.2730 ca         1 NNJ      -0.068000
      5 C20         -0.7760    -1.8100     0.2860 ca         1 NNJ      -0.115000
      6 C21          0.5470    -1.4090     0.0240 ca         1 NNJ       0.024000
      7 N26          3.1130     0.2580     0.6470 n8         1 NNJ      -1.009200
      8 N27         -1.5440     0.4880     0.0090 na         1 NNJ       0.072300
      9 H12          2.6670    -0.2380    -1.3580 h1         1 NNJ       0.063200
     10 H12A         2.2620     1.4290    -0.8940 h1         1 NNJ       0.063200
     11 H17         -0.0520     1.9340    -0.4750 h4         1 NNJ       0.180000
     12 H18         -3.0340     1.5560    -1.0330 h1         1 NNJ       0.096367
     13 H18A        -3.4400     1.1640     0.6630 h1         1 NNJ       0.096367
     14 H18B        -2.2640     2.4560     0.3070 h1         1 NNJ       0.096367
     15 H19         -2.8470    -1.1440     0.4680 h4         1 NNJ       0.185000
     16 H20         -0.9960    -2.8560     0.4970 ha         1 NNJ       0.179000
     17 H21          1.3520    -2.1420     0.0360 ha         1 NNJ       0.188000
     18 HN26         4.0480     0.6280     0.4290 hn         1 NNJ       0.425500
     19 HN2A         2.7700     0.9000     1.3730 hn         1 NNJ       0.425500
     20 C18         -2.6360     1.4750    -0.0150 c3         1 NNJ       0.011900
@<TRIPOS>BOND
     1     1     2 1   
     2     1     7 1   
     3     1     9 1   
     4     1    10 1   
     5     2     3 ar  
     6     2     6 ar  
     7     3     8 2   
     8     3    11 1   
     9     4     5 ar  
    10     4     8 1   
    11     4    15 1   
    12     5     6 ar  
    13     5    16 1   
    14     6    17 1   
    15     7    18 1   
    16     7    19 1   
    17     8    20 1   
    18    12    20 1   
    19    13    20 1   
    20    14    20 1   
@<TRIPOS>SUBSTRUCTURE
     1 NNJ         1 TEMP              0 ****  ****    0 ROOT
