@<TRIPOS>MOLECULE
NNK
   20    20     1     0     0
SMALL
abcg2


@<TRIPOS>ATOM
      1 N16          3.1580     0.7590    -0.3290 n8         1 NNK      -1.009200
      2 C17          2.4450    -0.3310     0.2940 c3         1 NNK       0.177100
      3 C18          0.9570    -0.2090     0.1470 ca         1 NNK       0.050700
      4 C22          0.1290    -1.2780     0.4890 ca         1 NNK      -0.118500
      5 C23         -1.2310    -1.1620     0.3680 ca         1 NNK      -0.061500
      6 N24         -1.7870    -0.0270    -0.0840 na         1 NNK       0.058300
      7 C25         -3.2460     0.0760    -0.1690 c3         1 NNK       0.012900
      8 C26         -1.0190     1.0160    -0.4220 ca         1 NNK      -0.010800
      9 C27          0.3500     0.9530    -0.3160 ca         1 NNK      -0.118500
     10 HN16         4.1110     0.7720     0.0070 hn         1 NNK       0.425500
     11 HN1A         3.2120     0.6110    -1.3290 hn         1 NNK       0.425500
     12 H17          2.7370    -1.3300    -0.0550 h1         1 NNK       0.073700
     13 H17A         2.6550    -0.3230     1.3680 h1         1 NNK       0.073700
     14 H22          0.5380    -2.2120     0.8480 ha         1 NNK       0.184000
     15 H23         -1.9060    -1.9660     0.6210 h4         1 NNK       0.183000
     16 H25         -3.6450     0.3550     0.8030 h1         1 NNK       0.095700
     17 H25A        -3.5100     0.8300    -0.9030 h1         1 NNK       0.095700
     18 H25B        -3.6560    -0.8810    -0.4740 h1         1 NNK       0.095700
     19 H26         -1.5280     1.8980    -0.7790 h4         1 NNK       0.183000
     20 H27          0.9390     1.8110    -0.6020 ha         1 NNK       0.184000
@<TRIPOS>BOND
     1     1     2 1   
     2     1    10 1   
     3     1    11 1   
     4     2     3 1   
     5     2    12 1   
     6     2    13 1   
     7     3     4 ar  
     8     3     9 ar  
     9     4     5 ar  
    10     4    14 1   
    11     5     6 1   
    12     5    15 1   
    13     6     7 1   
    14     6     8 2   
    15     7    16 1   
    16     7    17 1   
    17     7    18 1   
    18     8     9 ar  
    19     8    19 1   
    20     9    20 1   
@<TRIPOS>SUBSTRUCTURE
     1 NNK         1 TEMP              0 ****  ****    0 ROOT
