@<TRIPOS>MOLECULE
NNK
   20    20     1     0     0
SMALL
No Charge or Current Charge


@<TRIPOS>ATOM
      1 N16          3.2260     0.2640    -0.7480 n8         1 NNK      -1.009200
      2 C17          2.4780    -0.0490     0.4980 c3         1 NNK       0.177100
      3 C18          0.9650    -0.0400     0.2860 ca         1 NNK       0.050700
      4 C22          0.2280    -1.2420     0.2940 ca         1 NNK      -0.118500
      5 C23         -1.1670    -1.2170     0.1000 ca         1 NNK      -0.061500
      6 N24         -1.8420    -0.0110    -0.1070 na         1 NNK       0.058300
      7 C25         -3.3030     0.0060    -0.2910 c3         1 NNK       0.012900
      8 C26         -1.1120     1.1820    -0.1100 ca         1 NNK      -0.010800
      9 C27          0.2830     1.1750     0.0820 ca         1 NNK      -0.118500
     10 HN16         4.2350     0.1770    -0.5680 hn         1 NNK       0.425500
     11 HN1A         3.0460    -0.4730    -1.4420 hn         1 NNK       0.425500
     12 H17          2.7940    -1.0340     0.8730 h1         1 NNK       0.073700
     13 H17A         2.7350     0.6940     1.2680 h1         1 NNK       0.073700
     14 H22          0.7330    -2.1930     0.4510 ha         1 NNK       0.184000
     15 H23         -1.7560    -2.1360     0.1080 h4         1 NNK       0.183000
     16 H25         -3.7930     0.1150     0.6840 h1         1 NNK       0.095700
     17 H25A        -3.5920     0.8450    -0.9360 h1         1 NNK       0.095700
     18 H25B        -3.6340    -0.9280    -0.7600 h1         1 NNK       0.095700
     19 H26         -1.6580     2.1130    -0.2670 h4         1 NNK       0.183000
     20 H27          0.8360     2.1130     0.0700 ha         1 NNK       0.184000
@<TRIPOS>BOND
     1     1     2 1   
     2     1    10 1   
     3     1    11 1   
     4     2     3 1   
     5     2    12 1   
     6     2    13 1   
     7     3     4 ar  
     8     3     9 ar  
     9     4     5 ar  
    10     4    14 1   
    11     5     6 1   
    12     5    15 1   
    13     6     7 1   
    14     6     8 2   
    15     7    16 1   
    16     7    17 1   
    17     7    18 1   
    18     8     9 ar  
    19     8    19 1   
    20     9    20 1   
@<TRIPOS>SUBSTRUCTURE
     1 NNK         1 TEMP              0 ****  ****    0 ROOT
