@<TRIPOS>MOLECULE
NNL
   34    36     1     0     0
SMALL
No Charge or Current Charge


@<TRIPOS>ATOM
      1 CAA         -3.4360     3.6090     0.0310 c3         1 NNL      -0.148400
      2 CAC          4.6360    -0.3590     1.2020 ca         1 NNL      -0.101000
      3 CAD          4.6270    -0.3540    -1.2310 ca         1 NNL      -0.101000
      4 CAE          3.3000    -0.8000     1.2060 ca         1 NNL      -0.096000
      5 CAF          3.2920    -0.7940    -1.2280 ca         1 NNL      -0.096000
      6 CAG         -5.7990    -0.6850     0.0240 cc         1 NNL       0.355700
      7 CAH         -2.3050     1.3890     0.0180 cc         1 NNL      -0.321000
      8 CAI          0.1850    -0.3100     0.0020 c3         1 NNL       0.225800
      9 CAJ          1.1730    -1.4920    -0.0050 c3         1 NNL      -0.047100
     10 NAK         -5.3550    -1.9380     0.0180 nd         1 NNL      -0.373700
     11 NAL         -3.9800    -1.9030     0.0120 nd         1 NNL      -0.097000
     12 NAM         -4.7710     1.5750     0.0290 nd         1 NNL      -0.515800
     13 NAN         -1.2080    -0.7860     0.0060 nu         1 NNL      -0.945200
     14 CAO          5.2980    -0.1370    -0.0160 ca         1 NNL       0.123000
     15 CAP         -3.5440     2.1100     0.0260 cc         1 NNL       0.384300
     16 CAQ          2.6220    -1.0210    -0.0090 ca         1 NNL      -0.086300
     17 CAR         -2.3480    -0.0210     0.0130 cc         1 NNL       0.431000
     18 CAS         -3.6250    -0.6320     0.0160 cc         1 NNL      -0.190000
     19 NAT         -4.7270     0.1850     0.0230 na         1 NNL       0.153000
     20 HAA         -2.8970     3.9600    -0.8560 hc         1 NNL       0.058367
     21 HAAA        -4.4220     4.0870     0.0360 hc         1 NNL       0.058367
     22 HAAB        -2.8920     3.9530     0.9180 hc         1 NNL       0.058367
     23 HAC          5.1570    -0.1900     2.1410 ha         1 NNL       0.132000
     24 HAD          5.1420    -0.1800    -2.1730 ha         1 NNL       0.132000
     25 HAE          2.7930    -0.9680     2.1540 ha         1 NNL       0.118500
     26 HAF          2.7780    -0.9580    -2.1740 ha         1 NNL       0.118500
     27 HAG         -6.8290    -0.3540     0.0300 h5         1 NNL       0.087800
     28 HAH         -1.3640     1.9230     0.0170 ha         1 NNL       0.132000
     29 HAI          0.3730     0.3080     0.8920 h1         1 NNL       0.051700
     30 HAIA         0.3660     0.3140    -0.8840 h1         1 NNL       0.051700
     31 HAJ          0.9860    -2.1230     0.8720 hc         1 NNL       0.060200
     32 HAJA         0.9800    -2.1180    -0.8850 hc         1 NNL       0.060200
     33 HNAN        -1.3790    -1.7930     0.0030 hn         1 NNL       0.521000
     34 Cl           6.9680     0.4140    -0.0210 cl         1 NNL      -0.199000
@<TRIPOS>BOND
     1     1    15 1   
     2     1    20 1   
     3     1    21 1   
     4     1    22 1   
     5     2     4 ar  
     6     2    14 ar  
     7     2    23 1   
     8     3     5 ar  
     9     3    14 ar  
    10     3    24 1   
    11     4    16 ar  
    12     4    25 1   
    13     5    16 ar  
    14     5    26 1   
    15     6    10 2   
    16     6    19 1   
    17     6    27 1   
    18     7    15 1   
    19     7    17 2   
    20     7    28 1   
    21     8     9 1   
    22     8    13 1   
    23     8    29 1   
    24     8    30 1   
    25     9    16 1   
    26     9    31 1   
    27     9    32 1   
    28    10    11 1   
    29    11    18 2   
    30    12    15 2   
    31    12    19 1   
    32    13    17 1   
    33    13    33 1   
    34    14    34 1   
    35    17    18 1   
    36    18    19 1   
@<TRIPOS>SUBSTRUCTURE
     1 NNL         1 TEMP              0 ****  ****    0 ROOT
