@<TRIPOS>MOLECULE
NNL
   34    36     1     0     0
SMALL
bcc


@<TRIPOS>ATOM
      1 CAA         -3.3830     3.5710     0.0890 c3         1 NNL      -0.148400
      2 CAC          4.5370    -0.2520     1.1750 ca         1 NNL      -0.119000
      3 CAD          4.5360    -0.3670    -1.2350 ca         1 NNL      -0.119000
      4 CAE          3.2360    -0.7330     1.1870 ca         1 NNL      -0.114000
      5 CAF          3.2350    -0.8480    -1.2010 ca         1 NNL      -0.114000
      6 CAG         -5.7100    -0.6170    -0.0300 cc         1 NNL       0.355700
      7 CAH         -2.2360     1.3390     0.0450 cc         1 NNL      -0.404300
      8 CAI          0.1680    -0.3580    -0.0040 c3         1 NNL       0.225800
      9 CAJ          1.1470    -1.5260     0.0280 c3         1 NNL      -0.047100
     10 NAK         -5.3020    -1.8580    -0.0570 nd         1 NNL      -0.373700
     11 NAL         -3.9560    -1.8710    -0.0460 nd         1 NNL      -0.097000
     12 NAM         -4.6430     1.5520     0.0310 nd         1 NNL      -0.515800
     13 NAN         -1.1920    -0.8440     0.0010 nu         1 NNL      -0.751600
     14 CAO          5.1760    -0.0730    -0.0420 ca         1 NNL       0.031400
     15 CAP         -3.4490     2.0780     0.0530 cc         1 NNL       0.449600
     16 CAQ          2.5670    -1.0390     0.0050 ca         1 NNL      -0.086300
     17 CAR         -2.2550    -0.0390     0.0120 cc         1 NNL       0.292600
     18 CAS         -3.5630    -0.6190    -0.0120 cc         1 NNL      -0.139300
     19 NAT         -4.6390     0.2080    -0.0010 na         1 NNL       0.102300
     20 HAA         -2.8440     3.9500    -0.7800 hc         1 NNL       0.058367
     21 HAAA        -4.3790     4.0080     0.0970 hc         1 NNL       0.058367
     22 HAAB        -2.8460     3.9090     0.9760 hc         1 NNL       0.058367
     23 HAC          5.0430    -0.0230     2.1030 ha         1 NNL       0.150000
     24 HAD          5.0420    -0.2280    -2.1810 ha         1 NNL       0.150000
     25 HAE          2.7400    -0.8780     2.1390 ha         1 NNL       0.136500
     26 HAF          2.7390    -1.0820    -2.1350 ha         1 NNL       0.136500
     27 HAG         -6.7300    -0.2690    -0.0300 h5         1 NNL       0.087800
     28 HAH         -1.3050     1.8880     0.0650 ha         1 NNL       0.150000
     29 HAI          0.3330     0.2910     0.8620 h1         1 NNL       0.051700
     30 HAIA         0.3440     0.2520    -0.8970 h1         1 NNL       0.051700
     31 HAJ          0.9690    -2.1220     0.9260 hc         1 NNL       0.060200
     32 HAJA         0.9620    -2.1760    -0.8310 hc         1 NNL       0.060200
     33 HNAN        -1.3500    -1.8390    -0.0390 hn         1 NNL       0.465800
     34 CL           6.8050     0.5230    -0.0700 cl         1 NNL      -0.107400
@<TRIPOS>BOND
     1     1    15 1   
     2     1    20 1   
     3     1    21 1   
     4     1    22 1   
     5     2     4 ar  
     6     2    14 ar  
     7     2    23 1   
     8     3     5 ar  
     9     3    14 ar  
    10     3    24 1   
    11     4    16 ar  
    12     4    25 1   
    13     5    16 ar  
    14     5    26 1   
    15     6    10 2   
    16     6    19 1   
    17     6    27 1   
    18     7    15 1   
    19     7    17 2   
    20     7    28 1   
    21     8     9 1   
    22     8    13 1   
    23     8    29 1   
    24     8    30 1   
    25     9    16 1   
    26     9    31 1   
    27     9    32 1   
    28    10    11 1   
    29    11    18 2   
    30    12    15 2   
    31    12    19 1   
    32    13    17 1   
    33    13    33 1   
    34    14    34 1   
    35    17    18 1   
    36    18    19 1   
@<TRIPOS>SUBSTRUCTURE
     1 NNL         1 TEMP              0 ****  ****    0 ROOT
