@<TRIPOS>MOLECULE
NNN
   52    54     1     0     0
SMALL
abcg2


@<TRIPOS>ATOM
      1 O1           2.2860     4.9080     0.2020 oh         1 NNN      -0.665000
      2 C15          1.1310     4.4040     0.8340 c3         1 NNN       0.146600
      3 C12          0.5350     3.2990    -0.0250 c3         1 NNN       0.248500
      4 C13          0.0770     3.8010    -1.3970 c3         1 NNN      -0.089400
      5 C14         -0.6820     2.7510    -2.1940 c3         1 NNN      -0.090100
      6 N2           1.4760     2.2060    -0.1540 nu         1 NNN      -0.915100
      7 C2           1.2620     0.9160     0.1530 cc         1 NNN       0.445900
      8 N1           0.0620     0.6110     0.7020 nc         1 NNN      -0.371000
      9 C6          -0.1680    -0.6330     1.0250 cd         1 NNN       0.610400
     10 N5           0.7910    -1.5700     0.7970 na         1 NNN      -0.166600
     11 N7           0.6980    -2.8850     1.0680 nc         1 NNN      -0.612100
     12 C8           1.8600    -3.3610     0.6610 cd         1 NNN       0.420500
     13 C9           2.7200    -2.3830     0.1250 cd         1 NNN      -0.321800
     14 C17          4.1000    -2.5540    -0.4330 c3         1 NNN       0.029500
     15 C10          5.0770    -3.0530     0.6330 c3         1 NNN      -0.083100
     16 C11          4.1010    -3.4840    -1.6470 c3         1 NNN      -0.083100
     17 C4           1.9920    -1.2090     0.2260 cd         1 NNN       0.209500
     18 N3           2.2420     0.0650    -0.1060 nd         1 NNN      -0.291000
     19 N6          -1.3050    -1.0400     1.5790 nu         1 NNN      -0.921100
     20 CA          -2.4310    -0.1710     1.8410 c3         1 NNN       0.281100
     21 C1          -3.5150    -0.2830     0.7980 ca         1 NNN      -0.122300
     22 C16         -3.2330    -0.0600    -0.5490 ca         1 NNN      -0.094000
     23 C5          -4.2340    -0.1580    -1.5030 ca         1 NNN      -0.112000
     24 C18         -5.5330    -0.4790    -1.1250 ca         1 NNN      -0.101000
     25 C3          -5.8220    -0.7000     0.2140 ca         1 NNN      -0.112000
     26 C7          -4.8160    -0.6050     1.1680 ca         1 NNN      -0.094000
     27 HO1          2.7020     5.5420     0.7920 ho         1 NNN       0.447000
     28 H15          1.3590     3.9940     1.8250 h1         1 NNN       0.029200
     29 H15A         0.3700     5.1840     0.9720 h1         1 NNN       0.029200
     30 H12         -0.3340     2.9170     0.5130 h1         1 NNN       0.084700
     31 H13         -0.5650     4.6730    -1.2430 hc         1 NNN       0.050700
     32 H13A         0.9410     4.1530    -1.9680 hc         1 NNN       0.050700
     33 H14         -1.5870     2.4400    -1.6710 hc         1 NNN       0.035700
     34 H14A        -0.9790     3.1400    -3.1680 hc         1 NNN       0.035700
     35 H14B        -0.0770     1.8600    -2.3650 hc         1 NNN       0.035700
     36 HN2          2.3700     2.4110    -0.5720 hn         1 NNN       0.517000
     37 H8           2.0600    -4.4180     0.7660 h4         1 NNN       0.041800
     38 H9           4.4390    -1.5670    -0.7630 hc         1 NNN       0.064700
     39 H10          6.0850    -3.1480     0.2250 hc         1 NNN       0.030367
     40 H10A         5.1200    -2.3690     1.4810 hc         1 NNN       0.030367
     41 H10B         4.7790    -4.0340     1.0110 hc         1 NNN       0.030367
     42 H11          3.4460    -3.1100    -2.4350 hc         1 NNN       0.030367
     43 H11A         5.1060    -3.5790    -2.0640 hc         1 NNN       0.030367
     44 H11B         3.7600    -4.4850    -1.3750 hc         1 NNN       0.030367
     45 HN6         -1.4140    -2.0300     1.7410 hn         1 NNN       0.530000
     46 HA          -2.8310    -0.4230     2.8230 h1         1 NNN       0.070200
     47 HA'A        -2.0600     0.8520     1.8960 h1         1 NNN       0.070200
     48 H6          -2.2270     0.2000    -0.8540 ha         1 NNN       0.117500
     49 H5          -4.0010     0.0170    -2.5460 ha         1 NNN       0.114500
     50 H4          -6.3130    -0.5550    -1.8710 ha         1 NNN       0.114000
     51 H3          -6.8300    -0.9540     0.5180 ha         1 NNN       0.114500
     52 H2          -5.0470    -0.7870     2.2110 ha         1 NNN       0.117500
@<TRIPOS>BOND
     1     1     2 1   
     2     1    27 1   
     3     2     3 1   
     4     2    28 1   
     5     2    29 1   
     6     3     4 1   
     7     3     6 1   
     8     3    30 1   
     9     4     5 1   
    10     4    31 1   
    11     4    32 1   
    12     5    33 1   
    13     5    34 1   
    14     5    35 1   
    15     6     7 1   
    16     6    36 1   
    17     7     8 1   
    18     7    18 2   
    19     8     9 2   
    20     9    10 1   
    21     9    19 1   
    22    10    11 1   
    23    10    17 1   
    24    11    12 2   
    25    12    13 1   
    26    12    37 1   
    27    13    14 1   
    28    13    17 2   
    29    14    15 1   
    30    14    16 1   
    31    14    38 1   
    32    15    39 1   
    33    15    40 1   
    34    15    41 1   
    35    16    42 1   
    36    16    43 1   
    37    16    44 1   
    38    17    18 1   
    39    19    20 1   
    40    19    45 1   
    41    20    21 1   
    42    20    46 1   
    43    20    47 1   
    44    21    22 ar  
    45    21    26 ar  
    46    22    23 ar  
    47    22    48 1   
    48    23    24 ar  
    49    23    49 1   
    50    24    25 ar  
    51    24    50 1   
    52    25    26 ar  
    53    25    51 1   
    54    26    52 1   
@<TRIPOS>SUBSTRUCTURE
     1 NNN         1 TEMP              0 ****  ****    0 ROOT
