@<TRIPOS>MOLECULE
NNN
   52    54     1     0     0
SMALL
No Charge or Current Charge


@<TRIPOS>ATOM
      1 O1           2.9890     4.8150    -0.2540 oh         1 NNN      -0.665000
      2 C15          1.8990     4.6120     0.6720 c3         1 NNN       0.146600
      3 C12          0.8700     3.5600     0.1450 c3         1 NNN       0.248500
      4 C13          0.0720     4.0810    -1.0800 c3         1 NNN      -0.089400
      5 C14         -1.0980     3.1720    -1.5180 c3         1 NNN      -0.090100
      6 N2           1.5790     2.3070    -0.2060 nu         1 NNN      -0.915100
      7 C2           1.2880     1.0260     0.1690 cc         1 NNN       0.445900
      8 N1           0.0780     0.8630     0.7890 nc         1 NNN      -0.371000
      9 C6          -0.2280    -0.3720     1.1570 cd         1 NNN       0.610400
     10 N5           0.6370    -1.4550     0.9350 na         1 NNN      -0.166600
     11 N7           0.4660    -2.7950     1.2550 nc         1 NNN      -0.612100
     12 C8           1.6130    -3.3090     0.7840 cd         1 NNN       0.420500
     13 C9           2.4850    -2.3400     0.1840 cd         1 NNN      -0.321800
     14 C17          3.8390    -2.5900    -0.4370 c3         1 NNN       0.029500
     15 C10          4.8350    -3.1380     0.6060 c3         1 NNN      -0.083100
     16 C11          3.7230    -3.5200    -1.6620 c3         1 NNN      -0.083100
     17 C4           1.8000    -1.1170     0.3030 cd         1 NNN       0.209500
     18 N3           2.2070     0.1240    -0.1200 nd         1 NNN      -0.291000
     19 N6          -1.4120    -0.6270     1.7780 nu         1 NNN      -0.921100
     20 CA          -2.6370     0.1770     1.6740 c3         1 NNN       0.281100
     21 C1          -3.5340    -0.3960     0.5850 ca         1 NNN      -0.122300
     22 C16         -3.2450    -0.1550    -0.7730 ca         1 NNN      -0.094000
     23 C5          -4.0710    -0.6820    -1.7810 ca         1 NNN      -0.112000
     24 C18         -5.1930    -1.4560    -1.4370 ca         1 NNN      -0.101000
     25 C3          -5.4860    -1.7020    -0.0850 ca         1 NNN      -0.112000
     26 C7          -4.6600    -1.1750     0.9230 ca         1 NNN      -0.094000
     27 HO1          3.5860     5.4850     0.1480 ho         1 NNN       0.447000
     28 H15          2.2910     4.2610     1.6350 h1         1 NNN       0.029200
     29 H15A         1.3760     5.5590     0.8610 h1         1 NNN       0.029200
     30 H12          0.1530     3.3910     0.9620 h1         1 NNN       0.084700
     31 H13         -0.3370     5.0690    -0.8360 hc         1 NNN       0.050700
     32 H13A         0.7520     4.2270    -1.9290 hc         1 NNN       0.050700
     33 H14         -1.7920     3.0050    -0.6860 hc         1 NNN       0.035700
     34 H14A        -1.6540     3.6370    -2.3410 hc         1 NNN       0.035700
     35 H14B        -0.7300     2.2000    -1.8650 hc         1 NNN       0.035700
     36 HN2          2.5160     2.4270    -0.5900 hn         1 NNN       0.517000
     37 H8           1.7880    -4.3730     0.8870 h4         1 NNN       0.041800
     38 H9           4.2460    -1.6370    -0.7970 hc         1 NNN       0.064700
     39 H10          5.8300    -3.2640     0.1620 hc         1 NNN       0.030367
     40 H10A         4.9250    -2.4460     1.4520 hc         1 NNN       0.030367
     41 H10B         4.5050    -4.1110     0.9900 hc         1 NNN       0.030367
     42 H11          3.0350    -3.0940    -2.4030 hc         1 NNN       0.030367
     43 H11A         4.7000    -3.6520    -2.1420 hc         1 NNN       0.030367
     44 H11B         3.3460    -4.5080    -1.3720 hc         1 NNN       0.030367
     45 HN6         -1.5260    -1.6330     1.8970 hn         1 NNN       0.530000
     46 HA          -3.1720     0.1700     2.6340 h1         1 NNN       0.070200
     47 HA'A        -2.4110     1.2280     1.4420 h1         1 NNN       0.070200
     48 H6          -2.3760     0.4390    -1.0480 ha         1 NNN       0.117500
     49 H5          -3.8420    -0.4920    -2.8270 ha         1 NNN       0.114500
     50 H4          -5.8320    -1.8640    -2.2170 ha         1 NNN       0.114000
     51 H3          -6.3540    -2.3020     0.1820 ha         1 NNN       0.114500
     52 H2          -4.8950    -1.3730     1.9670 ha         1 NNN       0.117500
@<TRIPOS>BOND
     1     1     2 1   
     2     1    27 1   
     3     2     3 1   
     4     2    28 1   
     5     2    29 1   
     6     3     4 1   
     7     3     6 1   
     8     3    30 1   
     9     4     5 1   
    10     4    31 1   
    11     4    32 1   
    12     5    33 1   
    13     5    34 1   
    14     5    35 1   
    15     6     7 1   
    16     6    36 1   
    17     7     8 1   
    18     7    18 2   
    19     8     9 2   
    20     9    10 1   
    21     9    19 1   
    22    10    11 1   
    23    10    17 1   
    24    11    12 2   
    25    12    13 1   
    26    12    37 1   
    27    13    14 1   
    28    13    17 2   
    29    14    15 1   
    30    14    16 1   
    31    14    38 1   
    32    15    39 1   
    33    15    40 1   
    34    15    41 1   
    35    16    42 1   
    36    16    43 1   
    37    16    44 1   
    38    17    18 1   
    39    19    20 1   
    40    19    45 1   
    41    20    21 1   
    42    20    46 1   
    43    20    47 1   
    44    21    22 ar  
    45    21    26 ar  
    46    22    23 ar  
    47    22    48 1   
    48    23    24 ar  
    49    23    49 1   
    50    24    25 ar  
    51    24    50 1   
    52    25    26 ar  
    53    25    51 1   
    54    26    52 1   
@<TRIPOS>SUBSTRUCTURE
     1 NNN         1 TEMP              0 ****  ****    0 ROOT
