@<TRIPOS>MOLECULE
NNO
   15    15     1     0     0
SMALL
No Charge or Current Charge


@<TRIPOS>ATOM
      1 N1         -40.7880   -14.2640     9.5640 na         1 NNO       0.393300
      2 C2         -40.3810   -15.0920    10.6070 ca         1 NNO      -0.127000
      3 C3         -40.8320   -14.8960    11.9380 ca         1 NNO      -0.153600
      4 C4         -41.7210   -13.8240    12.2020 ca         1 NNO      -0.060000
      5 C5         -42.1440   -12.9760    11.1610 ca         1 NNO      -0.213000
      6 C6         -41.6750   -13.2030     9.8580 ca         1 NNO       0.054800
      7 C7         -40.3690   -15.8170    13.0510 c          1 NNO       0.717600
      8 O1         -39.6020   -16.7270    12.7680 o          1 NNO      -0.706500
      9 O2         -40.7790   -15.6170    14.1860 o          1 NNO      -0.706500
     10 O4         -42.0550   -12.4060     8.8010 oh         1 NNO      -0.501100
     11 O3         -40.3640   -14.4770     8.4100 o          1 NNO      -0.582000
     12 H2         -39.6980   -15.8980    10.3440 h4         1 NNO       0.183000
     13 H4         -42.0850   -13.6470    13.2130 ha         1 NNO       0.142000
     14 H5         -42.8260   -12.1560    11.3730 ha         1 NNO       0.104000
     15 HO4        -42.6650   -11.7130     9.1340 ho         1 NNO       0.456000
@<TRIPOS>BOND
     1     1     2 1   
     2     1     6 2   
     3     1    11 1   
     4     2     3 ar  
     5     2    12 1   
     6     3     4 ar  
     7     3     7 1   
     8     4     5 ar  
     9     4    13 1   
    10     5     6 ar  
    11     5    14 1   
    12     6    10 1   
    13     7     8 1   
    14     7     9 1   
    15    10    15 1   
@<TRIPOS>SUBSTRUCTURE
     1 NNO         1 TEMP              0 ****  ****    0 ROOT
