@<TRIPOS>MOLECULE
NNO
   15    15     1     0     0
SMALL
abcg2


@<TRIPOS>ATOM
      1 N1         -40.8210   -14.2440     9.6210 na         1 NNO       0.393300
      2 C2         -40.4250   -15.0520    10.6410 ca         1 NNO      -0.127000
      3 C3         -40.8500   -14.8740    11.9410 ca         1 NNO      -0.153600
      4 C4         -41.7220   -13.8190    12.2090 ca         1 NNO      -0.060000
      5 C5         -42.1270   -12.9900    11.1790 ca         1 NNO      -0.213000
      6 C6         -41.6740   -13.2110     9.8860 ca         1 NNO       0.054800
      7 C7         -40.3620   -15.8230    13.0360 c          1 NNO       0.717600
      8 O1         -39.5460   -16.7100    12.6870 o          1 NNO      -0.706500
      9 O2         -40.8230   -15.6290    14.1860 o          1 NNO      -0.706500
     10 O4         -42.0040   -12.4770     8.8170 oh         1 NNO      -0.501100
     11 O3         -40.3930   -14.4500     8.4060 o          1 NNO      -0.582000
     12 H2         -39.7510   -15.8400    10.3470 h4         1 NNO       0.183000
     13 H4         -42.0700   -13.6580    13.2190 ha         1 NNO       0.142000
     14 H5         -42.8030   -12.1620    11.3490 ha         1 NNO       0.104000
     15 HO4        -42.6130   -11.7730     9.0850 ho         1 NNO       0.456000
@<TRIPOS>BOND
     1     1     2 1   
     2     1     6 2   
     3     1    11 1   
     4     2     3 ar  
     5     2    12 1   
     6     3     4 ar  
     7     3     7 1   
     8     4     5 ar  
     9     4    13 1   
    10     5     6 ar  
    11     5    14 1   
    12     6    10 1   
    13     7     8 1   
    14     7     9 1   
    15    10    15 1   
@<TRIPOS>SUBSTRUCTURE
     1 NNO         1 TEMP              0 ****  ****    0 ROOT
