@<TRIPOS>MOLECULE
NNQ
   45    46     1     0     0
SMALL
abcg2


@<TRIPOS>ATOM
      1 CAA          9.5010    -0.5090     0.3390 c3         1 NNQ      -0.089100
      2 CAH          8.1050    -0.5530     0.9450 c3         1 NNQ      -0.074400
      3 CAI          7.0130    -0.1780    -0.0480 c3         1 NNQ      -0.075400
      4 CAJ          5.6120    -0.2160     0.5500 c3         1 NNQ      -0.074400
      5 CAK          4.5230     0.1610    -0.4470 c3         1 NNQ      -0.074400
      6 CAL          3.1200     0.1120     0.1460 c3         1 NNQ      -0.074400
      7 CAM          2.0370     0.4840    -0.8590 c3         1 NNQ      -0.076400
      8 CAN          0.6310     0.4020    -0.2780 c3         1 NNQ      -0.075400
      9 CAO         -0.4350     0.8000    -1.3040 c3         1 NNQ      -0.055200
     10 CAQ         -1.8220     0.6780    -0.7570 cc         1 NNQ       0.164800
     11 CAG         -2.5330     1.7400    -0.2810 cd         1 NNQ      -0.384200
     12 CAR         -3.8450     1.5940     0.2830 c          1 NNQ       0.593900
     13 OAB         -4.5030     2.5380     0.7270 o          1 NNQ      -0.572100
     14 CAT         -4.3620     0.2170     0.2950 ca         1 NNQ      -0.207600
     15 CAF         -5.6350    -0.0720     0.8050 ca         1 NNQ      -0.022000
     16 CAD         -6.1190    -1.3600     0.8120 ca         1 NNQ      -0.159000
     17 CAC         -5.3310    -2.4000     0.3040 ca         1 NNQ      -0.051000
     18 CAE         -4.0770    -2.1480    -0.2030 ca         1 NNQ      -0.181000
     19 CAS         -3.5860    -0.8350    -0.2100 ca         1 NNQ       0.320000
     20 NAP         -2.3420    -0.5680    -0.7140 na         1 NNQ      -0.793000
     21 H1           9.7400     0.4920    -0.0270 hc         1 NNQ       0.031700
     22 H2          10.2630    -0.7820     1.0700 hc         1 NNQ       0.031700
     23 H3           9.5900    -1.1970    -0.5040 hc         1 NNQ       0.031700
     24 H4           7.9080    -1.5550     1.3380 hc         1 NNQ       0.036700
     25 H5           8.0610     0.1230     1.8050 hc         1 NNQ       0.036700
     26 H6           7.2130     0.8250    -0.4430 hc         1 NNQ       0.037200
     27 H7           7.0580    -0.8560    -0.9080 hc         1 NNQ       0.037200
     28 H8           5.4120    -1.2190     0.9430 hc         1 NNQ       0.037700
     29 H9           5.5680     0.4620     1.4100 hc         1 NNQ       0.037700
     30 H10          4.7190     1.1660    -0.8350 hc         1 NNQ       0.037700
     31 H11          4.5720    -0.5130    -1.3090 hc         1 NNQ       0.037700
     32 H12          2.9230    -0.8940     0.5330 hc         1 NNQ       0.039700
     33 H13          3.0660     0.7870     1.0070 hc         1 NNQ       0.039700
     34 H14          2.2190     1.4990    -1.2300 hc         1 NNQ       0.039700
     35 H15          2.1040    -0.1770    -1.7290 hc         1 NNQ       0.039700
     36 H16          0.4430    -0.6150     0.0790 hc         1 NNQ       0.047700
     37 H17          0.5510     1.0580     0.5940 hc         1 NNQ       0.047700
     38 H18         -0.2710     1.8300    -1.6210 hc         1 NNQ       0.060700
     39 H19         -0.3420     0.1720    -2.1950 hc         1 NNQ       0.060700
     40 H20         -2.0920     2.7270    -0.3330 ha         1 NNQ       0.206000
     41 H21         -6.2360     0.7400     1.1930 ha         1 NNQ       0.138000
     42 H22         -7.1030    -1.5730     1.2080 ha         1 NNQ       0.120000
     43 H23         -5.7070    -3.4150     0.3090 ha         1 NNQ       0.114000
     44 H24         -3.4680    -2.9540    -0.5950 ha         1 NNQ       0.113000
     45 H25         -1.8010    -1.3350    -1.0860 hn         1 NNQ       0.501000
@<TRIPOS>BOND
     1     1     2 1   
     2     1    21 1   
     3     1    22 1   
     4     1    23 1   
     5     2     3 1   
     6     2    24 1   
     7     2    25 1   
     8     3     4 1   
     9     3    26 1   
    10     3    27 1   
    11     4     5 1   
    12     4    28 1   
    13     4    29 1   
    14     5     6 1   
    15     5    30 1   
    16     5    31 1   
    17     6     7 1   
    18     6    32 1   
    19     6    33 1   
    20     7     8 1   
    21     7    34 1   
    22     7    35 1   
    23     8     9 1   
    24     8    36 1   
    25     8    37 1   
    26     9    10 1   
    27     9    38 1   
    28     9    39 1   
    29    10    11 2   
    30    10    20 1   
    31    11    12 1   
    32    11    40 1   
    33    12    13 2   
    34    12    14 1   
    35    14    15 ar  
    36    14    19 ar  
    37    15    16 ar  
    38    15    41 1   
    39    16    17 ar  
    40    16    42 1   
    41    17    18 ar  
    42    17    43 1   
    43    18    19 ar  
    44    18    44 1   
    45    19    20 1   
    46    20    45 1   
@<TRIPOS>SUBSTRUCTURE
     1 NNQ         1 TEMP              0 ****  ****    0 ROOT
