@<TRIPOS>MOLECULE
NNQ
   45    46     1     0     0
SMALL
No Charge or Current Charge


@<TRIPOS>ATOM
      1 CAA          9.6580    -0.4050     0.3890 c3         1 NNQ      -0.089100
      2 CAH          8.2330    -0.5360     0.9610 c3         1 NNQ      -0.074400
      3 CAI          7.1370    -0.1180    -0.0430 c3         1 NNQ      -0.075400
      4 CAJ          5.7090    -0.2510     0.5310 c3         1 NNQ      -0.074400
      5 CAK          4.6130     0.1670    -0.4740 c3         1 NNQ      -0.074400
      6 CAL          3.1850     0.0350     0.1000 c3         1 NNQ      -0.074400
      7 CAM          2.0890     0.4530    -0.9050 c3         1 NNQ      -0.076400
      8 CAN          0.6610     0.3210    -0.3310 c3         1 NNQ      -0.075400
      9 CAO         -0.4370     0.7400    -1.3330 c3         1 NNQ      -0.055200
     10 CAQ         -1.8260     0.6210    -0.7630 cc         1 NNQ       0.164800
     11 CAG         -2.5700     1.6700    -0.2730 cd         1 NNQ      -0.384200
     12 CAR         -3.9140     1.5880     0.2860 c          1 NNQ       0.593900
     13 OAB         -4.5010     2.5790     0.7000 o          1 NNQ      -0.572100
     14 CAT         -4.5090     0.2430     0.3180 ca         1 NNQ      -0.207600
     15 CAF         -5.8010     0.0070     0.8330 ca         1 NNQ      -0.022000
     16 CAD         -6.3200    -1.2980     0.8410 ca         1 NNQ      -0.159000
     17 CAC         -5.5530    -2.3600     0.3370 ca         1 NNQ      -0.051000
     18 CAE         -4.2670    -2.1110    -0.1730 ca         1 NNQ      -0.181000
     19 CAS         -3.7420    -0.8080    -0.1830 ca         1 NNQ       0.320000
     20 NAP         -2.4610    -0.6220    -0.7020 na         1 NNQ      -0.793000
     21 H1           9.8670     0.6340     0.1050 hc         1 NNQ       0.031700
     22 H2          10.3990    -0.7120     1.1360 hc         1 NNQ       0.031700
     23 H3           9.7800    -1.0390    -0.4970 hc         1 NNQ       0.031700
     24 H4           8.0670    -1.5770     1.2690 hc         1 NNQ       0.036700
     25 H5           8.1530     0.0810     1.8650 hc         1 NNQ       0.036700
     26 H6           7.3070     0.9210    -0.3500 hc         1 NNQ       0.037200
     27 H7           7.2210    -0.7360    -0.9460 hc         1 NNQ       0.037200
     28 H8           5.5390    -1.2910     0.8370 hc         1 NNQ       0.037700
     29 H9           5.6250     0.3670     1.4330 hc         1 NNQ       0.037700
     30 H10          4.7830     1.2070    -0.7800 hc         1 NNQ       0.037700
     31 H11          4.6970    -0.4510    -1.3770 hc         1 NNQ       0.037700
     32 H12          3.0150    -1.0050     0.4060 hc         1 NNQ       0.039700
     33 H13          3.1010     0.6530     1.0020 hc         1 NNQ       0.039700
     34 H14          2.2600     1.4930    -1.2120 hc         1 NNQ       0.039700
     35 H15          2.1730    -0.1650    -1.8080 hc         1 NNQ       0.039700
     36 H16          0.4910    -0.7180    -0.0220 hc         1 NNQ       0.047700
     37 H17          0.5760     0.9400     0.5720 hc         1 NNQ       0.047700
     38 H18         -0.2580     1.7750    -1.6500 hc         1 NNQ       0.060700
     39 H19         -0.3570     0.1250    -2.2370 hc         1 NNQ       0.060700
     40 H20         -2.1670     2.6740    -0.2760 ha         1 NNQ       0.206000
     41 H21         -6.3990     0.8280     1.2250 ha         1 NNQ       0.138000
     42 H22         -7.3160    -1.4850     1.2370 ha         1 NNQ       0.120000
     43 H23         -5.9530    -3.3720     0.3410 ha         1 NNQ       0.114000
     44 H24         -3.6790    -2.9380    -0.5610 ha         1 NNQ       0.113000
     45 H25         -1.9680    -1.4400    -1.0490 hn         1 NNQ       0.501000
@<TRIPOS>BOND
     1     1     2 1   
     2     1    21 1   
     3     1    22 1   
     4     1    23 1   
     5     2     3 1   
     6     2    24 1   
     7     2    25 1   
     8     3     4 1   
     9     3    26 1   
    10     3    27 1   
    11     4     5 1   
    12     4    28 1   
    13     4    29 1   
    14     5     6 1   
    15     5    30 1   
    16     5    31 1   
    17     6     7 1   
    18     6    32 1   
    19     6    33 1   
    20     7     8 1   
    21     7    34 1   
    22     7    35 1   
    23     8     9 1   
    24     8    36 1   
    25     8    37 1   
    26     9    10 1   
    27     9    38 1   
    28     9    39 1   
    29    10    11 2   
    30    10    20 1   
    31    11    12 1   
    32    11    40 1   
    33    12    13 2   
    34    12    14 1   
    35    14    15 ar  
    36    14    19 ar  
    37    15    16 ar  
    38    15    41 1   
    39    16    17 ar  
    40    16    42 1   
    41    17    18 ar  
    42    17    43 1   
    43    18    19 ar  
    44    18    44 1   
    45    19    20 1   
    46    20    45 1   
@<TRIPOS>SUBSTRUCTURE
     1 NNQ         1 TEMP              0 ****  ****    0 ROOT
