@<TRIPOS>MOLECULE
NNR
   33    34     1     0     0
SMALL
abcg2


@<TRIPOS>ATOM
      1 O2R         -0.7270     2.5840    -0.4050 oh         1 NNR      -0.680000
      2 C2R         -1.3500     1.3430    -0.4360 c5         1 NNR       0.141300
      3 C3R         -2.8730     1.3340    -0.2730 c5         1 NNR       0.121300
      4 O3R         -3.2050     2.3310     0.6510 oh         1 NNR      -0.678000
      5 C4R         -3.0940    -0.0710     0.2830 c5         1 NNR       0.114300
      6 C5R         -3.1880    -1.1360    -0.7910 c3         1 NNR       0.138600
      7 O5R         -3.1940    -2.3930    -0.1620 oh         1 NNR      -0.710000
      8 O4R         -1.9600    -0.2900     1.1430 os         1 NNR      -0.406000
      9 C1R         -0.9110     0.5140     0.7830 c5         1 NNR       0.269300
     10 N1           0.2880    -0.3230     0.4450 na         1 NNR       0.028300
     11 C2           1.4590     0.3120     0.3300 ca         1 NNR      -0.017000
     12 C6           0.1800    -1.6430     0.2430 ca         1 NNR       0.004700
     13 C5           1.2930    -2.3760    -0.0960 ca         1 NNR      -0.133000
     14 C4           2.5140    -1.7410    -0.2380 ca         1 NNR       0.017000
     15 C3           2.6020    -0.3690    -0.0300 ca         1 NNR      -0.169600
     16 C7           3.8710     0.4330    -0.1210 c          1 NNR       0.620700
     17 O7           3.9280     1.5330     0.4030 o          1 NNR      -0.559100
     18 N7           4.8770    -0.1350    -0.7880 nt         1 NNR      -0.584000
     19 HO2R        -0.7040     2.9470    -1.2960 ho         1 NNR       0.540000
     20 H2R         -1.0990     0.7970    -1.3540 h1         1 NNR       0.047700
     21 H3R         -3.3820     1.4750    -1.2350 h1         1 NNR       0.076700
     22 HO3R        -4.1590     2.3240     0.7810 ho         1 NNR       0.529000
     23 H4R         -3.9810    -0.1240     0.9190 h1         1 NNR       0.123700
     24 H5R1        -4.1080    -0.9540    -1.3600 h1         1 NNR       0.032700
     25 H5R2        -2.3560    -1.0470    -1.5020 h1         1 NNR       0.032700
     26 HO5R        -3.2460    -3.0710    -0.8420 ho         1 NNR       0.523000
     27 H1R         -0.5880     1.1480     1.6140 h2         1 NNR       0.146700
     28 H2           1.4630     1.3740     0.5300 h4         1 NNR       0.215000
     29 H6          -0.7930    -2.0940     0.3690 h4         1 NNR       0.211000
     30 H5           1.1960    -3.4420    -0.2400 ha         1 NNR       0.175000
     31 H4           3.3850    -2.3310    -0.4890 ha         1 NNR       0.159000
     32 HN71         4.7900    -0.9980    -1.2950 hn         1 NNR       0.335000
     33 HN72         5.7520     0.3570    -0.8790 hn         1 NNR       0.335000
@<TRIPOS>BOND
     1     1     2 1   
     2     1    19 1   
     3     2     3 1   
     4     2     9 1   
     5     2    20 1   
     6     3     4 1   
     7     3     5 1   
     8     3    21 1   
     9     4    22 1   
    10     5     6 1   
    11     5     8 1   
    12     5    23 1   
    13     6     7 1   
    14     6    24 1   
    15     6    25 1   
    16     7    26 1   
    17     8     9 1   
    18     9    10 1   
    19     9    27 1   
    20    10    11 1   
    21    10    12 2   
    22    11    15 ar  
    23    11    28 1   
    24    12    13 ar  
    25    12    29 1   
    26    13    14 ar  
    27    13    30 1   
    28    14    15 ar  
    29    14    31 1   
    30    15    16 1   
    31    16    17 2   
    32    16    18 1   
    33    18    32 1   
    34    18    33 1   
@<TRIPOS>SUBSTRUCTURE
     1 NNR         1 TEMP              0 ****  ****    0 ROOT
