@<TRIPOS>MOLECULE
NNR
   33    34     1     0     0
SMALL
No Charge or Current Charge


@<TRIPOS>ATOM
      1 O2R         -1.0310     2.9270    -0.1720 oh         1 NNR      -0.680000
      2 C2R         -1.3930     1.5540    -0.3550 c5         1 NNR       0.141300
      3 C3R         -2.9470     1.4190    -0.3390 c5         1 NNR       0.121300
      4 O3R         -3.5180     2.3460     0.6090 oh         1 NNR      -0.678000
      5 C4R         -3.0910    -0.0700     0.1020 c5         1 NNR       0.114300
      6 C5R         -2.7960    -1.1100    -1.0250 c3         1 NNR       0.138600
      7 O5R         -3.0390    -2.4500    -0.5630 oh         1 NNR      -0.710000
      8 O4R         -2.1210    -0.1730     1.1740 os         1 NNR      -0.406000
      9 C1R         -0.9480     0.6150     0.8310 c5         1 NNR       0.269300
     10 N1           0.2310    -0.2360     0.5590 na         1 NNR       0.028300
     11 C2           1.4400     0.3270     0.1180 ca         1 NNR      -0.017000
     12 C6           0.2280    -1.6310     0.7360 ca         1 NNR       0.004700
     13 C5           1.3490    -2.4270     0.4470 ca         1 NNR      -0.133000
     14 C4           2.5330    -1.8390    -0.0180 ca         1 NNR       0.017000
     15 C3           2.5910    -0.4390    -0.1830 ca         1 NNR      -0.169600
     16 C7           3.8360     0.2680    -0.6650 c          1 NNR       0.620700
     17 O7           3.8800     1.4790    -0.8040 o          1 NNR      -0.559100
     18 N7           4.9330    -0.4660    -0.9510 nt         1 NNR      -0.584000
     19 HO2R        -1.8400     3.3180     0.2510 ho         1 NNR       0.540000
     20 H2R         -0.9880     1.1820    -1.3070 h1         1 NNR       0.047700
     21 H3R         -3.3700     1.5820    -1.3420 h1         1 NNR       0.076700
     22 HO3R        -4.4980     2.2170     0.6050 ho         1 NNR       0.529000
     23 H4R         -4.0950    -0.2770     0.4980 h1         1 NNR       0.123700
     24 H5R1        -3.4510    -0.8860    -1.8780 h1         1 NNR       0.032700
     25 H5R2        -1.7600    -1.0090    -1.3750 h1         1 NNR       0.032700
     26 HO5R        -2.9380    -3.0520    -1.3390 ho         1 NNR       0.523000
     27 H1R         -0.6680     1.2240     1.7000 h2         1 NNR       0.146700
     28 H2           1.4580     1.4150     0.0080 h4         1 NNR       0.215000
     29 H6          -0.6880    -2.0960     1.1050 h4         1 NNR       0.211000
     30 H5           1.2990    -3.5050     0.5880 ha         1 NNR       0.175000
     31 H4           3.3870    -2.4780    -0.2330 ha         1 NNR       0.159000
     32 HN71         4.9280    -1.4680    -0.8470 hn         1 NNR       0.335000
     33 HN72         5.7640     0.0070    -1.2730 hn         1 NNR       0.335000
@<TRIPOS>BOND
     1     1     2 1   
     2     1    19 1   
     3     2     3 1   
     4     2     9 1   
     5     2    20 1   
     6     3     4 1   
     7     3     5 1   
     8     3    21 1   
     9     4    22 1   
    10     5     6 1   
    11     5     8 1   
    12     5    23 1   
    13     6     7 1   
    14     6    24 1   
    15     6    25 1   
    16     7    26 1   
    17     8     9 1   
    18     9    10 1   
    19     9    27 1   
    20    10    11 1   
    21    10    12 2   
    22    11    15 ar  
    23    11    28 1   
    24    12    13 ar  
    25    12    29 1   
    26    13    14 ar  
    27    13    30 1   
    28    14    15 ar  
    29    14    31 1   
    30    15    16 1   
    31    16    17 2   
    32    16    18 1   
    33    18    32 1   
    34    18    33 1   
@<TRIPOS>SUBSTRUCTURE
     1 NNR         1 TEMP              0 ****  ****    0 ROOT
