@<TRIPOS>MOLECULE
NNS
   20    20     1     0     0
SMALL
No Charge or Current Charge


@<TRIPOS>ATOM
      1 C            0.3370     0.1150     4.0580 c3         1 NNS      -0.181100
      2 C1           0.3270     0.1030     0.2090 ca         1 NNS      -0.058000
      3 C2          -0.9470     0.1840    -0.3980 ca         1 NNS      -0.109500
      4 C3          -1.0680     0.1880    -1.8000 ca         1 NNS      -0.148500
      5 C4           0.0780     0.1100    -2.6070 ca         1 NNS       0.114100
      6 O           -0.0330     0.1120    -3.9660 oh         1 NNS      -0.534100
      7 C5           1.3450     0.0280    -2.0130 ca         1 NNS      -0.148500
      8 C6           1.4690     0.0250    -0.6130 ca         1 NNS      -0.109500
      9 N            0.5290     0.0940     1.6190 ns         1 NNS      -0.143000
     10 C7          -0.3490     0.1560     2.6950 c          1 NNS       0.607100
     11 O1          -1.5680     0.2370     2.5980 o          1 NNS      -0.590100
     12 H11          1.0780     0.9210     4.1090 hc         1 NNS       0.062700
     13 H12         -0.3740     0.1650     4.8910 hc         1 NNS       0.062700
     14 H13          0.9640    -0.7820     4.1140 hc         1 NNS       0.062700
     15 H2          -1.8550     0.2460     0.1950 ha         1 NNS       0.129500
     16 H3          -2.0560     0.2510    -2.2510 ha         1 NNS       0.121500
     17 H4          -0.9840     0.1740    -4.2020 ho         1 NNS       0.464000
     18 H5           2.2330    -0.0320    -2.6370 ha         1 NNS       0.121500
     19 H6           2.4590    -0.0390    -0.1660 ha         1 NNS       0.129500
     20 H1           1.5020     0.0300     1.8900 hn         1 NNS       0.148000
@<TRIPOS>BOND
     1     1    10 1   
     2     1    12 1   
     3     1    13 1   
     4     1    14 1   
     5     2     3 ar  
     6     2     8 ar  
     7     2     9 1   
     8     3     4 ar  
     9     3    15 1   
    10     4     5 ar  
    11     4    16 1   
    12     5     6 1   
    13     5     7 ar  
    14     6    17 1   
    15     7     8 ar  
    16     7    18 1   
    17     8    19 1   
    18     9    10 1   
    19     9    20 1   
    20    10    11 2   
@<TRIPOS>SUBSTRUCTURE
     1 NNS         1 TEMP              0 ****  ****    0 ROOT
