@<TRIPOS>MOLECULE
NNS
   20    20     1     0     0
SMALL
abcg2


@<TRIPOS>ATOM
      1 C            0.3490     0.0730     3.9980 c3         1 NNS      -0.181100
      2 C1           0.3360     0.1150     0.2210 ca         1 NNS      -0.058000
      3 C2          -0.9290     0.0640    -0.3620 ca         1 NNS      -0.109500
      4 C3          -1.0640     0.0830    -1.7440 ca         1 NNS      -0.148500
      5 C4           0.0480     0.1520    -2.5740 ca         1 NNS       0.114100
      6 O           -0.0360     0.1710    -3.9210 oh         1 NNS      -0.534100
      7 C5           1.3140     0.2040    -1.9950 ca         1 NNS      -0.148500
      8 C6           1.4490     0.1870    -0.6200 ca         1 NNS      -0.109500
      9 N            0.5850     0.0950     1.6010 ns         1 NNS      -0.143000
     10 C7          -0.2910     0.0880     2.6330 c          1 NNS       0.607100
     11 O1          -1.5040     0.0930     2.4960 o          1 NNS      -0.590100
     12 H11          1.4370     0.0760     3.9810 hc         1 NNS       0.062700
     13 H12          0.0110     0.9430     4.5620 hc         1 NNS       0.062700
     14 H13          0.0160    -0.8120     4.5400 hc         1 NNS       0.062700
     15 H2          -1.8170     0.0070     0.2460 ha         1 NNS       0.129500
     16 H3          -2.0610     0.0400    -2.1710 ha         1 NNS       0.121500
     17 H4          -0.9570     0.1200    -4.1980 ho         1 NNS       0.464000
     18 H5           2.1940     0.2600    -2.6230 ha         1 NNS       0.121500
     19 H6           2.4450     0.2290    -0.1930 ha         1 NNS       0.129500
     20 H1           1.5620     0.0960     1.8490 hn         1 NNS       0.148000
@<TRIPOS>BOND
     1     1    10 1   
     2     1    12 1   
     3     1    13 1   
     4     1    14 1   
     5     2     3 ar  
     6     2     8 ar  
     7     2     9 1   
     8     3     4 ar  
     9     3    15 1   
    10     4     5 ar  
    11     4    16 1   
    12     5     6 1   
    13     5     7 ar  
    14     6    17 1   
    15     7     8 ar  
    16     7    18 1   
    17     8    19 1   
    18     9    10 1   
    19     9    20 1   
    20    10    11 2   
@<TRIPOS>SUBSTRUCTURE
     1 NNS         1 TEMP              0 ****  ****    0 ROOT
