@<TRIPOS>MOLECULE
NNT
   20    20     1     0     0
SMALL
No Charge or Current Charge


@<TRIPOS>ATOM
      1 C12          1.2240     1.6810    -0.4990 c3         1 NNT       0.196100
      2 C13          0.1730     0.6050    -0.2500 ca         1 NNT      -0.075300
      3 C17         -1.1910     0.9670    -0.1990 ca         1 NNT      -0.016300
      4 C19         -1.8270    -1.3240     0.1920 ca         1 NNT      -0.057000
      5 C20         -0.4750    -1.7130     0.1460 ca         1 NNT      -0.121000
      6 C21          0.5280    -0.7530    -0.0720 ca         1 NNT       0.223000
      7 N24          1.7940     2.1820     0.7710 n8         1 NNT      -1.000200
      8 N25         -2.1900     0.0150     0.0280 na         1 NNT       0.062300
      9 Cl28         2.2100    -1.2830    -0.1220 cl         1 NNT      -0.047000
     10 H12          2.0320     1.2850    -1.1310 h1         1 NNT       0.064700
     11 H12A         0.7680     2.5220    -1.0440 h1         1 NNT       0.064700
     12 H17         -1.5070     2.0020    -0.3350 h4         1 NNT       0.181000
     13 H18         -4.0220     0.3850    -0.9510 h1         1 NNT       0.096367
     14 H18A        -4.1760    -0.2710     0.7050 h1         1 NNT       0.096367
     15 H18B        -3.7020     1.4300     0.4650 h1         1 NNT       0.096367
     16 H19         -2.6220    -2.0530     0.3560 h4         1 NNT       0.187000
     17 H20         -0.2020    -2.7570     0.2780 ha         1 NNT       0.188000
     18 HN24         2.4470     2.9500     0.5660 hn         1 NNT       0.422500
     19 HN2A         1.0540     2.6420     1.3160 hn         1 NNT       0.422500
     20 C18         -3.6070     0.4140     0.0640 c3         1 NNT       0.013900
@<TRIPOS>BOND
     1     1     2 1   
     2     1     7 1   
     3     1    10 1   
     4     1    11 1   
     5     2     3 ar  
     6     2     6 ar  
     7     3     8 2   
     8     3    12 1   
     9     4     5 ar  
    10     4     8 1   
    11     4    16 1   
    12     5     6 ar  
    13     5    17 1   
    14     6     9 1   
    15     7    18 1   
    16     7    19 1   
    17     8    20 1   
    18    13    20 1   
    19    14    20 1   
    20    15    20 1   
@<TRIPOS>SUBSTRUCTURE
     1 NNT         1 TEMP              0 ****  ****    0 ROOT
