@<TRIPOS>MOLECULE
NNT
   20    20     1     0     0
SMALL
abcg2


@<TRIPOS>ATOM
      1 C12          1.1170     1.7670    -0.4740 c3         1 NNT       0.196100
      2 C13          0.1230     0.6620    -0.2560 ca         1 NNT      -0.075300
      3 C17         -1.2240     0.9480    -0.2180 ca         1 NNT      -0.016300
      4 C19         -1.7940    -1.2660     0.2130 ca         1 NNT      -0.057000
      5 C20         -0.4730    -1.6370     0.1900 ca         1 NNT      -0.121000
      6 C21          0.4910    -0.6660    -0.0400 ca         1 NNT       0.223000
      7 N24          1.8510     2.0060     0.7530 n8         1 NNT      -1.000200
      8 N25         -2.1500     0.0070     0.0120 na         1 NNT       0.062300
      9 CL28         2.1310    -1.1270    -0.0870 cl         1 NNT      -0.047000
     10 H12          1.8200     1.4600    -1.2500 h1         1 NNT       0.064700
     11 H12A         0.5860     2.6410    -0.8670 h1         1 NNT       0.064700
     12 H17         -1.5880     1.9530    -0.3770 h4         1 NNT       0.181000
     13 H18         -3.9860     0.1490    -0.9820 h1         1 NNT       0.096367
     14 H18A        -4.0910    -0.2160     0.7570 h1         1 NNT       0.096367
     15 H18B        -3.6790     1.4200     0.2210 h1         1 NNT       0.096367
     16 H19         -2.5870    -1.9780     0.3880 h4         1 NNT       0.187000
     17 H20         -0.2110    -2.6710     0.3510 ha         1 NNT       0.188000
     18 HN24         2.6650     2.5710     0.5530 hn         1 NNT       0.422500
     19 HN2A         1.2810     2.5390     1.3970 hn         1 NNT       0.422500
     20 C18         -3.5720     0.3640     0.0000 c3         1 NNT       0.013900
@<TRIPOS>BOND
     1     1     2 1   
     2     1     7 1   
     3     1    10 1   
     4     1    11 1   
     5     2     3 ar  
     6     2     6 ar  
     7     3     8 2   
     8     3    12 1   
     9     4     5 ar  
    10     4     8 1   
    11     4    16 1   
    12     5     6 ar  
    13     5    17 1   
    14     6     9 1   
    15     7    18 1   
    16     7    19 1   
    17     8    20 1   
    18    13    20 1   
    19    14    20 1   
    20    15    20 1   
@<TRIPOS>SUBSTRUCTURE
     1 NNT         1 TEMP              0 ****  ****    0 ROOT
