@<TRIPOS>MOLECULE
NNU
   16    16     1     0     0
SMALL
abcg2


@<TRIPOS>ATOM
      1 N16         -1.8810    -1.7650    -0.7060 n8         1 NNU      -0.988200
      2 C17         -1.1330    -1.5750     0.5270 c3         1 NNU       0.202100
      3 C18          0.0810    -0.7290     0.2750 ca         1 NNU      -0.128300
      4 C22          1.3490    -1.3020     0.2570 ca         1 NNU       0.341900
      5 N23          2.4770    -0.6470     0.0170 nb         1 NNU      -0.663000
      6 C24          2.3900     0.6550    -0.2220 ca         1 NNU       0.343900
      7 C25          1.1890     1.3480    -0.2330 ca         1 NNU      -0.164000
      8 C26          0.0290     0.6360     0.0140 ca         1 NNU       0.176000
      9 CL27        -1.4800     1.4720     0.0230 cl         1 NNU      -0.176000
     10 HN16        -1.3640    -2.3800    -1.3220 hn         1 NNU       0.397000
     11 HN1A        -2.7470    -2.2450    -0.4960 hn         1 NNU       0.397000
     12 H17         -1.7820    -1.0750     1.2480 h1         1 NNU       0.041200
     13 H17A        -0.8060    -2.5090     1.0010 h1         1 NNU       0.041200
     14 H22          1.4410    -2.3660     0.4520 h4         1 NNU       0.017100
     15 H24          3.3160     1.1830    -0.4150 h4         1 NNU       0.023100
     16 H25          1.1700     2.4110    -0.4260 ha         1 NNU       0.138000
@<TRIPOS>BOND
     1     1     2 1   
     2     1    10 1   
     3     1    11 1   
     4     2     3 1   
     5     2    12 1   
     6     2    13 1   
     7     3     4 ar  
     8     3     8 ar  
     9     4     5 ar  
    10     4    14 1   
    11     5     6 ar  
    12     6     7 ar  
    13     6    15 1   
    14     7     8 ar  
    15     7    16 1   
    16     8     9 1   
@<TRIPOS>SUBSTRUCTURE
     1 NNU         1 TEMP              0 ****  ****    0 ROOT
