@<TRIPOS>MOLECULE
NNU
   16    16     1     0     0
SMALL
No Charge or Current Charge


@<TRIPOS>ATOM
      1 N16         -1.8710    -1.9040    -0.7190 n8         1 NNU      -0.988200
      2 C17         -1.1870    -1.5090     0.5270 c3         1 NNU       0.202100
      3 C18          0.0620    -0.6900     0.2440 ca         1 NNU      -0.128300
      4 C22          1.3140    -1.3300     0.1780 ca         1 NNU       0.341900
      5 N23          2.4760    -0.6760    -0.0580 nb         1 NNU      -0.663000
      6 C24          2.4220     0.6630    -0.2380 ca         1 NNU       0.343900
      7 C25          1.2250     1.3880    -0.1870 ca         1 NNU      -0.164000
      8 C26          0.0250     0.7060     0.0590 ca         1 NNU       0.176000
      9 Cl27        -1.4810     1.6220     0.1330 cl         1 NNU      -0.176000
     10 HN16        -1.2570    -2.5270    -1.2570 hn         1 NNU       0.397000
     11 HN1A        -2.6740    -2.5000    -0.4840 hn         1 NNU       0.397000
     12 H17         -1.8850    -0.9350     1.1530 h1         1 NNU       0.041200
     13 H17A        -0.9160    -2.4180     1.0830 h1         1 NNU       0.041200
     14 H22          1.3940    -2.4070     0.3200 h4         1 NNU       0.017100
     15 H24          3.3690     1.1670    -0.4270 h4         1 NNU       0.023100
     16 H25          1.2320     2.4630    -0.3340 ha         1 NNU       0.138000
@<TRIPOS>BOND
     1     1     2 1   
     2     1    10 1   
     3     1    11 1   
     4     2     3 1   
     5     2    12 1   
     6     2    13 1   
     7     3     4 ar  
     8     3     8 ar  
     9     4     5 ar  
    10     4    14 1   
    11     5     6 ar  
    12     6     7 ar  
    13     6    15 1   
    14     7     8 ar  
    15     7    16 1   
    16     8     9 1   
@<TRIPOS>SUBSTRUCTURE
     1 NNU         1 TEMP              0 ****  ****    0 ROOT
