@<TRIPOS>MOLECULE
NNW
   16    16     1     0     0
SMALL
abcg2


@<TRIPOS>ATOM
      1 C15          1.9650     0.3260    -0.3510 c3         1 NNW       0.193100
      2 C16          0.4760     0.1900    -0.1690 ca         1 NNW      -0.046300
      3 C17         -0.3690     1.2560    -0.4670 ca         1 NNW      -0.156500
      4 C18         -1.7370     1.1030    -0.3190 ca         1 NNW       0.330400
      5 C19         -1.5030    -1.0340     0.3950 ca         1 NNW       0.330400
      6 C20         -0.1210    -0.9830     0.2760 ca         1 NNW      -0.156500
      7 N23          2.7090    -0.7180     0.3230 n8         1 NNW      -0.999200
      8 N24         -2.3090    -0.0200     0.1060 nb         1 NNW      -0.666000
      9 H15          2.1750     0.2570    -1.4220 h1         1 NNW       0.040200
     10 H15A         2.2530     1.3450    -0.0580 h1         1 NNW       0.040200
     11 H17          0.0310     2.2030    -0.8120 ha         1 NNW       0.129000
     12 H18         -2.4010     1.9280    -0.5500 h4         1 NNW       0.016600
     13 H19         -1.9780    -1.9450     0.7430 h4         1 NNW       0.016600
     14 H20          0.4770    -1.8460     0.5310 ha         1 NNW       0.129000
     15 HN23         3.6760    -0.6790     0.0310 hn         1 NNW       0.399500
     16 HN2A         2.7120    -0.5470     1.3210 hn         1 NNW       0.399500
@<TRIPOS>BOND
     1     1     2 1   
     2     1     7 1   
     3     1     9 1   
     4     1    10 1   
     5     2     3 ar  
     6     2     6 ar  
     7     3     4 ar  
     8     3    11 1   
     9     4     8 ar  
    10     4    12 1   
    11     5     6 ar  
    12     5     8 ar  
    13     5    13 1   
    14     6    14 1   
    15     7    15 1   
    16     7    16 1   
@<TRIPOS>SUBSTRUCTURE
     1 NNW         1 TEMP              0 ****  ****    0 ROOT
