@<TRIPOS>MOLECULE
NNW
   16    16     1     0     0
SMALL
No Charge or Current Charge


@<TRIPOS>ATOM
      1 C15          1.9710    -0.0020    -0.5480 c3         1 NNW       0.193100
      2 C16          0.4730     0.0160    -0.2700 ca         1 NNW      -0.046300
      3 C17         -0.2300     1.2260    -0.1300 ca         1 NNW      -0.156500
      4 C18         -1.6120     1.1960     0.1250 ca         1 NNW       0.330400
      5 C19         -1.6400    -1.1200     0.1110 ca         1 NNW       0.330400
      6 C20         -0.2590    -1.1790    -0.1450 ca         1 NNW      -0.156500
      7 N23          2.7530    -0.1540     0.6950 n8         1 NNW      -0.999200
      8 N24         -2.3150     0.0460     0.2450 nb         1 NNW      -0.666000
      9 H15          2.2120    -0.8350    -1.2240 h1         1 NNW       0.040200
     10 H15A         2.2670     0.9340    -1.0430 h1         1 NNW       0.040200
     11 H17          0.2800     2.1820    -0.2150 ha         1 NNW       0.129000
     12 H18         -2.1750     2.1220     0.2370 h4         1 NNW       0.016600
     13 H19         -2.2240    -2.0340     0.2120 h4         1 NNW       0.016600
     14 H20          0.2310    -2.1440    -0.2410 ha         1 NNW       0.129000
     15 HN23         3.7520    -0.0750     0.4710 hn         1 NNW       0.399500
     16 HN2A         2.5740     0.6580     1.2970 hn         1 NNW       0.399500
@<TRIPOS>BOND
     1     1     2 1   
     2     1     7 1   
     3     1     9 1   
     4     1    10 1   
     5     2     3 ar  
     6     2     6 ar  
     7     3     4 ar  
     8     3    11 1   
     9     4     8 ar  
    10     4    12 1   
    11     5     6 ar  
    12     5     8 ar  
    13     5    13 1   
    14     6    14 1   
    15     7    15 1   
    16     7    16 1   
@<TRIPOS>SUBSTRUCTURE
     1 NNW         1 TEMP              0 ****  ****    0 ROOT
