@<TRIPOS>MOLECULE
NNX
   20    20     1     0     0
SMALL
No Charge or Current Charge


@<TRIPOS>ATOM
      1 Cl2          3.0810    -0.5400    -0.0390 cl         1 NNX      -0.061000
      2 N18         -2.7660    -1.7750    -0.6880 n8         1 NNX      -1.018200
      3 C19         -2.1060    -1.3220     0.5610 c3         1 NNX       0.177100
      4 C20         -0.9660    -0.3390     0.2780 ca         1 NNX      -0.015300
      5 N21         -1.2270     1.0300     0.0570 na         1 NNX       0.073300
      6 C22          0.3630    -0.8160     0.2410 ca         1 NNX      -0.130000
      7 C23          1.4290     0.0640     0.0020 ca         1 NNX       0.207000
      8 C24          1.1740     1.4280    -0.1950 ca         1 NNX      -0.119000
      9 C25         -0.1510     1.9010    -0.1600 ca         1 NNX      -0.001300
     10 HN18        -2.0860    -2.2900    -1.2620 hn         1 NNX       0.434000
     11 HN1A        -3.4680    -2.4920    -0.4600 hn         1 NNX       0.434000
     12 H19         -2.8510    -0.8580     1.2230 h1         1 NNX       0.076200
     13 H19A        -1.7070    -2.1980     1.0950 h1         1 NNX       0.076200
     14 H22          0.5730    -1.8710     0.4020 ha         1 NNX       0.181000
     15 H24          1.9980     2.1150    -0.3730 ha         1 NNX       0.188000
     16 H25         -0.3710     2.9590    -0.3080 h4         1 NNX       0.186000
     17 H27         -3.0650     1.4820     1.0040 h1         1 NNX       0.100367
     18 H27A        -2.6110     2.6060    -0.3030 h1         1 NNX       0.100367
     19 H27B        -3.2010     0.9770    -0.7080 h1         1 NNX       0.100367
     20 C27         -2.6070     1.5550     0.0100 c3         1 NNX       0.010900
@<TRIPOS>BOND
     1     1     7 1   
     2     2     3 1   
     3     2    10 1   
     4     2    11 1   
     5     3     4 1   
     6     3    12 1   
     7     3    13 1   
     8     4     5 1   
     9     4     6 ar  
    10     5     9 2   
    11     5    20 1   
    12     6     7 ar  
    13     6    14 1   
    14     7     8 ar  
    15     8     9 ar  
    16     8    15 1   
    17     9    16 1   
    18    17    20 1   
    19    18    20 1   
    20    19    20 1   
@<TRIPOS>SUBSTRUCTURE
     1 NNX         1 TEMP              0 ****  ****    0 ROOT
