@<TRIPOS>MOLECULE
NNX
   20    20     1     0     0
SMALL
bcc


@<TRIPOS>ATOM
      1 CL2          3.0420    -0.4320     0.0920 cl         1 NNX       0.030600
      2 N18         -2.7600    -1.5590    -0.7140 n8         1 NNX      -0.907800
      3 C19         -2.0440    -1.3330     0.5270 c3         1 NNX       0.177100
      4 C20         -0.9150    -0.3680     0.2920 ca         1 NNX       0.035400
      5 N21         -1.1790     0.9290     0.0210 na         1 NNX       0.051900
      6 C22          0.3960    -0.7960     0.3170 ca         1 NNX      -0.148000
      7 C23          1.4230     0.0990     0.0650 ca         1 NNX       0.115400
      8 C24          1.1280     1.4240    -0.2120 ca         1 NNX      -0.137000
      9 C25         -0.1910     1.8010    -0.2220 ca         1 NNX      -0.019300
     10 HN18        -2.2360    -2.1890    -1.3070 hn         1 NNX       0.378800
     11 HN1A        -3.6420    -2.0110    -0.5140 hn         1 NNX       0.378800
     12 H19         -2.7300    -0.9120     1.2640 h1         1 NNX       0.076200
     13 H19A        -1.6200    -2.2330     0.9810 h1         1 NNX       0.076200
     14 H22          0.6020    -1.8350     0.5330 ha         1 NNX       0.199000
     15 H24          1.8940     2.1580    -0.4140 ha         1 NNX       0.206000
     16 H25         -0.4810     2.8200    -0.4270 h4         1 NNX       0.204000
     17 H27         -2.9470     1.4120     1.0400 h1         1 NNX       0.100367
     18 H27A        -2.5740     2.4370    -0.3550 h1         1 NNX       0.100367
     19 H27B        -3.1680     0.7810    -0.6110 h1         1 NNX       0.100367
     20 C27         -2.5640     1.4210     0.0230 c3         1 NNX      -0.018400
@<TRIPOS>BOND
     1     1     7 1   
     2     2     3 1   
     3     2    10 1   
     4     2    11 1   
     5     3     4 1   
     6     3    12 1   
     7     3    13 1   
     8     4     5 1   
     9     4     6 ar  
    10     5     9 2   
    11     5    20 1   
    12     6     7 ar  
    13     6    14 1   
    14     7     8 ar  
    15     8     9 ar  
    16     8    15 1   
    17     9    16 1   
    18    17    20 1   
    19    18    20 1   
    20    19    20 1   
@<TRIPOS>SUBSTRUCTURE
     1 NNX         1 TEMP              0 ****  ****    0 ROOT
