@<TRIPOS>MOLECULE
NNY
   16    16     1     0     0
SMALL
No Charge or Current Charge


@<TRIPOS>ATOM
      1 C12          2.5760     0.6130    -0.4540 c3         1 NNY       0.099500
      2 C13          1.2250    -0.0980    -0.2330 ca         1 NNY       0.357300
      3 C17          0.0740    -2.0960     0.0720 ca         1 NNY       0.347900
      4 C18         -1.1560    -1.4300     0.1630 ca         1 NNY      -0.160000
      5 C19         -1.1750    -0.0350     0.0480 ca         1 NNY       0.152000
      6 C20          0.0330     0.6430    -0.1530 ca         1 NNY      -0.160000
      7 N23          3.1810     1.2310     0.7660 n8         1 NNY      -0.978200
      8 N24          1.2470    -1.4510    -0.1230 nb         1 NNY      -0.640000
      9 Cl27        -2.6900     0.8500     0.1540 cl         1 NNY      -0.189000
     10 H12          3.2970    -0.1070    -0.8670 h1         1 NNY       0.042700
     11 H12A         2.4360     1.4010    -1.2070 h1         1 NNY       0.042700
     12 H17          0.1250    -3.1810     0.1570 h4         1 NNY       0.025100
     13 H18         -2.0720    -1.9900     0.3190 ha         1 NNY       0.139000
     14 H20          0.0500     1.7240    -0.2460 ha         1 NNY       0.134000
     15 HN23         4.0430     1.7280     0.5050 hn         1 NNY       0.394500
     16 HN2A         2.5670     1.9790     1.1140 hn         1 NNY       0.394500
@<TRIPOS>BOND
     1     1     2 1   
     2     1     7 1   
     3     1    10 1   
     4     1    11 1   
     5     2     6 ar  
     6     2     8 ar  
     7     3     4 ar  
     8     3     8 ar  
     9     3    12 1   
    10     4     5 ar  
    11     4    13 1   
    12     5     6 ar  
    13     5     9 1   
    14     6    14 1   
    15     7    15 1   
    16     7    16 1   
@<TRIPOS>SUBSTRUCTURE
     1 NNY         1 TEMP              0 ****  ****    0 ROOT
