@<TRIPOS>MOLECULE
NNY
   16    16     1     0     0
SMALL
bcc


@<TRIPOS>ATOM
      1 C12          2.4690     0.7750    -0.4910 c3         1 NNY       0.099500
      2 C13          1.1890     0.0180    -0.2570 ca         1 NNY       0.422600
      3 C17          0.1750    -1.9610     0.2510 ca         1 NNY       0.413200
      4 C18         -1.0970    -1.4070     0.2140 ca         1 NNY      -0.243300
      5 C19         -1.1850    -0.0590    -0.0800 ca         1 NNY       0.060400
      6 C20         -0.0350     0.6740    -0.3200 ca         1 NNY      -0.243300
      7 N23          3.2410     0.8590     0.7390 n8         1 NNY      -0.867800
      8 N24          1.2880    -1.2790     0.0250 nb         1 NNY      -0.640000
      9 CL27        -2.7260     0.7140    -0.1470 cl         1 NNY      -0.097400
     10 H12          3.0610     0.2270    -1.2280 h1         1 NNY       0.042700
     11 H12A         2.2300     1.7470    -0.9400 h1         1 NNY       0.042700
     12 H17          0.2880    -3.0170     0.4720 h4         1 NNY       0.025100
     13 H18         -1.9720    -2.0110     0.4060 ha         1 NNY       0.157000
     14 H20         -0.0820     1.7300    -0.5480 ha         1 NNY       0.152000
     15 HN23         4.1370     1.2820     0.5360 hn         1 NNY       0.339300
     16 HN2A         2.7800     1.4880     1.3840 hn         1 NNY       0.339300
@<TRIPOS>BOND
     1     1     2 1   
     2     1     7 1   
     3     1    10 1   
     4     1    11 1   
     5     2     6 ar  
     6     2     8 ar  
     7     3     4 ar  
     8     3     8 ar  
     9     3    12 1   
    10     4     5 ar  
    11     4    13 1   
    12     5     6 ar  
    13     5     9 1   
    14     6    14 1   
    15     7    15 1   
    16     7    16 1   
@<TRIPOS>SUBSTRUCTURE
     1 NNY         1 TEMP              0 ****  ****    0 ROOT
