@<TRIPOS>MOLECULE
NNZ
   20    20     1     0     0
SMALL
No Charge or Current Charge


@<TRIPOS>ATOM
      1 N16          2.5850    -1.0300     0.6540 n8         1 NNZ      -0.994200
      2 C17          1.8370    -0.5960    -0.5540 c3         1 NNZ       0.174100
      3 C18          0.3570    -0.3250    -0.2560 ca         1 NNZ       0.031400
      4 C22         -0.5150    -1.4260    -0.1120 ca         1 NNZ      -0.103000
      5 C23         -1.8850    -1.2300     0.1320 ca         1 NNZ       0.011000
      6 C24         -2.3890     0.0770     0.2240 ca         1 NNZ      -0.112000
      7 C25         -1.5180     1.1720     0.0830 ca         1 NNZ      -0.066000
      8 N26         -0.1460     0.9880    -0.1310 na         1 NNZ       0.063300
      9 C27          0.7420     2.1680    -0.1740 c3         1 NNZ       0.011900
     10 HN16         3.5760    -1.1620     0.4120 hn         1 NNZ       0.424500
     11 HN1A         2.6090    -0.2640     1.3390 hn         1 NNZ       0.424500
     12 H17          2.3250     0.2880    -0.9890 h1         1 NNZ       0.072700
     13 H17A         1.9010    -1.3930    -1.3100 h1         1 NNZ       0.072700
     14 H22         -0.1260    -2.4390    -0.1930 ha         1 NNZ       0.179000
     15 H23         -2.5510    -2.0840     0.2400 ha         1 NNZ       0.171000
     16 H24         -3.4510     0.2410     0.4010 ha         1 NNZ       0.178000
     17 H25         -1.8920     2.1960     0.1470 h4         1 NNZ       0.182000
     18 H27          1.1330     2.2990    -1.1900 h1         1 NNZ       0.093033
     19 H27A         0.1920     3.0730     0.1100 h1         1 NNZ       0.093033
     20 H27B         1.5750     2.0350     0.5260 h1         1 NNZ       0.093033
@<TRIPOS>BOND
     1     1     2 1   
     2     1    10 1   
     3     1    11 1   
     4     2     3 1   
     5     2    12 1   
     6     2    13 1   
     7     3     4 ar  
     8     3     8 2   
     9     4     5 ar  
    10     4    14 1   
    11     5     6 ar  
    12     5    15 1   
    13     6     7 ar  
    14     6    16 1   
    15     7     8 1   
    16     7    17 1   
    17     8     9 1   
    18     9    18 1   
    19     9    19 1   
    20     9    20 1   
@<TRIPOS>SUBSTRUCTURE
     1 NNZ         1 TEMP              0 ****  ****    0 ROOT
