@<TRIPOS>MOLECULE
NNZ
   20    20     1     0     0
SMALL
abcg2


@<TRIPOS>ATOM
      1 N16          2.4660    -0.8790     0.7260 n8         1 NNZ      -0.994200
      2 C17          1.8200    -0.5380    -0.5300 c3         1 NNZ       0.174100
      3 C18          0.3520    -0.3230    -0.2830 ca         1 NNZ       0.031400
      4 C22         -0.5070    -1.4030    -0.1790 ca         1 NNZ      -0.103000
      5 C23         -1.8500    -1.2140     0.0840 ca         1 NNZ       0.011000
      6 C24         -2.3290     0.0770     0.2490 ca         1 NNZ      -0.112000
      7 C25         -1.4470     1.1230     0.1500 ca         1 NNZ      -0.066000
      8 N26         -0.1440     0.9180    -0.1060 na         1 NNZ       0.063300
      9 C27          0.7350     2.0930    -0.2020 c3         1 NNZ       0.011900
     10 HN16         3.3770    -1.2730     0.5290 hn         1 NNZ       0.424500
     11 HN1A         2.6340    -0.0470     1.2770 hn         1 NNZ       0.424500
     12 H17          2.2600     0.3100    -1.0620 h1         1 NNZ       0.072700
     13 H17A         1.9030    -1.3930    -1.2010 h1         1 NNZ       0.072700
     14 H22         -0.1030    -2.3970    -0.3150 ha         1 NNZ       0.179000
     15 H23         -2.5170    -2.0620     0.1580 ha         1 NNZ       0.171000
     16 H24         -3.3690     0.2810     0.4530 ha         1 NNZ       0.178000
     17 H25         -1.7580     2.1490     0.2760 h4         1 NNZ       0.182000
     18 H27          1.0680     2.2240    -1.2270 h1         1 NNZ       0.093033
     19 H27A         0.1790     2.9700     0.1080 h1         1 NNZ       0.093033
     20 H27B         1.5910     1.9720     0.4540 h1         1 NNZ       0.093033
@<TRIPOS>BOND
     1     1     2 1   
     2     1    10 1   
     3     1    11 1   
     4     2     3 1   
     5     2    12 1   
     6     2    13 1   
     7     3     4 ar  
     8     3     8 2   
     9     4     5 ar  
    10     4    14 1   
    11     5     6 ar  
    12     5    15 1   
    13     6     7 ar  
    14     6    16 1   
    15     7     8 1   
    16     7    17 1   
    17     8     9 1   
    18     9    18 1   
    19     9    19 1   
    20     9    20 1   
@<TRIPOS>SUBSTRUCTURE
     1 NNZ         1 TEMP              0 ****  ****    0 ROOT
