@<TRIPOS>MOLECULE
NO0
   36    38     1     0     0
SMALL
No Charge or Current Charge


@<TRIPOS>ATOM
      1 N1           7.6140     0.9460    17.3610 nb         1 NO0      -0.652000
      2 C4          12.9410     0.0820    23.6200 ca         1 NO0      -0.110000
      3 C5          13.7480    -0.3960    22.5730 ca         1 NO0      -0.081000
      4 C6          13.1840    -1.1860    21.5550 ca         1 NO0       0.027000
      5 C7          14.0050    -1.6730    20.4840 cg         1 NO0      -0.130000
      6 C8          14.6930    -2.0840    19.5700 c1         1 NO0      -0.223000
      7 C10          7.6110     0.0490    19.6270 ca         1 NO0      -0.074000
      8 C13          5.6870     1.2740    18.8020 ca         1 NO0      -0.090000
      9 C15          3.6980     1.6010    20.1700 ca         1 NO0      -0.106000
     10 C17          5.5880     0.3390    21.0500 ca         1 NO0      -0.083000
     11 O            8.4300     0.7940    22.3760 o          1 NO0      -0.571100
     12 C            8.7060    -0.2990    21.8940 c          1 NO0       0.598100
     13 N            8.3530    -0.6670    20.6050 ns         1 NO0      -0.168000
     14 C18          6.3040     0.5520    19.8500 ca         1 NO0      -0.002000
     15 C16          4.2940     0.8660    21.2080 ca         1 NO0      -0.094000
     16 C14          4.3920     1.8020    18.9660 ca         1 NO0      -0.086000
     17 C12          6.3790     1.4480    17.5870 ca         1 NO0       0.356900
     18 C11          8.2040     0.2590    18.3640 ca         1 NO0       0.304900
     19 C1           9.5100    -1.3520    22.6670 c3         1 NO0      -0.106100
     20 C2          10.9990    -1.0210    22.6380 ca         1 NO0      -0.086300
     21 C9          11.8120    -1.4970    21.5890 ca         1 NO0      -0.085000
     22 C3          11.5710    -0.2290    23.6520 ca         1 NO0      -0.076000
     23 H1          13.3780     0.6940    24.4060 ha         1 NO0       0.119000
     24 H2          14.8080    -0.1510    22.5530 ha         1 NO0       0.122000
     25 H3          15.3060    -2.4450    18.7680 ha         1 NO0       0.258000
     26 H4           2.6970     2.0070    20.2960 ha         1 NO0       0.117000
     27 H5           6.0130    -0.2410    21.8630 ha         1 NO0       0.122000
     28 H6           8.7000    -1.5690    20.3030 hn         1 NO0       0.155000
     29 H7           3.7510     0.7000    22.1350 ha         1 NO0       0.116000
     30 H8           3.9200     2.3620    18.1600 ha         1 NO0       0.118000
     31 H9           5.9260     1.9980    16.7630 h4         1 NO0       0.021100
     32 H10          9.2030    -0.1240    18.1550 h4         1 NO0       0.021100
     33 H11          9.1560    -1.3710    23.7040 hc         1 NO0       0.067700
     34 H12          9.3550    -2.3390    22.2140 hc         1 NO0       0.067700
     35 H13         11.3790    -2.1070    20.8000 ha         1 NO0       0.113000
     36 H14         10.9540     0.1490    24.4650 ha         1 NO0       0.122000
@<TRIPOS>BOND
     1     1    17 ar  
     2     1    18 ar  
     3     2     3 ar  
     4     2    22 ar  
     5     2    23 1   
     6     3     4 ar  
     7     3    24 1   
     8     4     5 1   
     9     4    21 ar  
    10     5     6 3   
    11     6    25 1   
    12     7    13 1   
    13     7    14 ar  
    14     7    18 ar  
    15     8    14 ar  
    16     8    16 ar  
    17     8    17 ar  
    18     9    15 ar  
    19     9    16 ar  
    20     9    26 1   
    21    10    14 ar  
    22    10    15 ar  
    23    10    27 1   
    24    11    12 2   
    25    12    13 1   
    26    12    19 1   
    27    13    28 1   
    28    15    29 1   
    29    16    30 1   
    30    17    31 1   
    31    18    32 1   
    32    19    20 1   
    33    19    33 1   
    34    19    34 1   
    35    20    21 ar  
    36    20    22 ar  
    37    21    35 1   
    38    22    36 1   
@<TRIPOS>SUBSTRUCTURE
     1 NO0         1 TEMP              0 ****  ****    0 ROOT
