@<TRIPOS>MOLECULE
NO0
   36    38     1     0     0
SMALL
abcg2


@<TRIPOS>ATOM
      1 N1           7.4620     0.8040    17.3170 nb         1 NO0      -0.652000
      2 C4          12.8250     0.1130    23.6440 ca         1 NO0      -0.110000
      3 C5          13.7030    -0.3250    22.6630 ca         1 NO0      -0.081000
      4 C6          13.2330    -1.1330    21.6180 ca         1 NO0       0.027000
      5 C7          14.1270    -1.5920    20.6050 cg         1 NO0      -0.130000
      6 C8          14.8880    -1.9730    19.7530 c1         1 NO0      -0.223000
      7 C10          7.5290    -0.0760    19.5560 ca         1 NO0      -0.074000
      8 C13          5.6630     1.2880    18.8430 ca         1 NO0      -0.090000
      9 C15          3.7980     1.7640    20.3010 ca         1 NO0      -0.106000
     10 C17          5.6090     0.3670    21.1060 ca         1 NO0      -0.083000
     11 O            8.6580     0.7820    21.9980 o          1 NO0      -0.571100
     12 C            8.7690    -0.3870    21.6500 c          1 NO0       0.598100
     13 N            8.2230    -0.8730    20.5040 ns         1 NO0      -0.168000
     14 C18          6.2770     0.5160    19.8690 ca         1 NO0      -0.002000
     15 C16          4.3980     0.9780    21.3110 ca         1 NO0      -0.094000
     16 C14          4.4170     1.9130    19.0870 ca         1 NO0      -0.086000
     17 C12          6.3160     1.3850    17.5910 ca         1 NO0       0.356900
     18 C11          8.0600     0.0890    18.3020 ca         1 NO0       0.304900
     19 C1           9.5360    -1.4080    22.4820 c3         1 NO0      -0.106100
     20 C2          10.9980    -1.0460    22.5630 ca         1 NO0      -0.086300
     21 C9          11.8790    -1.4860    21.5790 ca         1 NO0      -0.085000
     22 C3          11.4820    -0.2440    23.5960 ca         1 NO0      -0.076000
     23 H1          13.1900     0.7330    24.4530 ha         1 NO0       0.119000
     24 H2          14.7490    -0.0520    22.6980 ha         1 NO0       0.122000
     25 H3          15.5640    -2.3010    18.9980 ha         1 NO0       0.258000
     26 H4           2.8450     2.2400    20.4900 ha         1 NO0       0.117000
     27 H5           6.0560    -0.2320    21.8850 ha         1 NO0       0.122000
     28 H6           8.4700    -1.8110    20.2260 hn         1 NO0       0.155000
     29 H7           3.8900     0.8580    22.2590 ha         1 NO0       0.116000
     30 H8           3.9650     2.5020    18.2990 ha         1 NO0       0.118000
     31 H9           5.8500     1.9660    16.8010 h4         1 NO0       0.021100
     32 H10          9.0120    -0.3700    18.0580 h4         1 NO0       0.021100
     33 H11          9.0910    -1.3960    23.4780 hc         1 NO0       0.067700
     34 H12          9.4140    -2.4090    22.0700 hc         1 NO0       0.067700
     35 H13         11.5170    -2.1110    20.7720 ha         1 NO0       0.113000
     36 H14         10.8030     0.0980    24.3670 ha         1 NO0       0.122000
@<TRIPOS>BOND
     1     1    17 ar  
     2     1    18 ar  
     3     2     3 ar  
     4     2    22 ar  
     5     2    23 1   
     6     3     4 ar  
     7     3    24 1   
     8     4     5 1   
     9     4    21 ar  
    10     5     6 3   
    11     6    25 1   
    12     7    13 1   
    13     7    14 ar  
    14     7    18 ar  
    15     8    14 ar  
    16     8    16 ar  
    17     8    17 ar  
    18     9    15 ar  
    19     9    16 ar  
    20     9    26 1   
    21    10    14 ar  
    22    10    15 ar  
    23    10    27 1   
    24    11    12 2   
    25    12    13 1   
    26    12    19 1   
    27    13    28 1   
    28    15    29 1   
    29    16    30 1   
    30    17    31 1   
    31    18    32 1   
    32    19    20 1   
    33    19    33 1   
    34    19    34 1   
    35    20    21 ar  
    36    20    22 ar  
    37    21    35 1   
    38    22    36 1   
@<TRIPOS>SUBSTRUCTURE
     1 NO0         1 TEMP              0 ****  ****    0 ROOT
