@<TRIPOS>MOLECULE
NO1
   25    26     1     0     0
SMALL
bcc


@<TRIPOS>ATOM
      1 C           -3.1450    -0.1060     0.0070 c          1 NO1       0.937800
      2 O           -3.5780    -1.2730     0.0070 o          1 NO1      -0.819800
      3 OXT         -3.8180     0.9460     0.0110 o          1 NO1      -0.819800
      4 CG          -0.5850    -0.7810    -0.0000 cc         1 NO1      -0.166400
      5 CD1         -1.6500     0.0920     0.0000 cd         1 NO1      -0.086300
      6 NE1         -1.1730     1.3790    -0.0070 na         1 NO1      -0.146400
      7 CD2          0.6040     0.0290    -0.0100 ca         1 NO1      -0.093800
      8 CE2          0.1800     1.3780    -0.0130 ca         1 NO1      -0.068200
      9 CE3          1.9890    -0.2500    -0.0150 ca         1 NO1      -0.050300
     10 CZ2          1.0730     2.4530    -0.0210 ca         1 NO1      -0.146000
     11 CZ3          2.8670     0.8180    -0.0230 ca         1 NO1      -0.157000
     12 CH2          2.4150     2.1500    -0.0260 ca         1 NO1      -0.147000
     13 CF           2.4790    -1.6730    -0.0130 c3         1 NO1       0.184700
     14 OH           3.8830    -1.7130    -0.0310 oh         1 NO1      -0.604800
     15 HB1C        -0.1700    -2.7050    -0.8730 hc         1 NO1       0.029367
     16 HB2C        -0.1350    -2.6920     0.8810 hc         1 NO1       0.029367
     17 HB3C        -1.6760    -2.6140     0.0330 hc         1 NO1       0.029367
     18 HE1         -1.7760     2.1840    -0.0070 hn         1 NO1       0.313700
     19 HZ2          0.7220     3.4770    -0.0240 ha         1 NO1       0.116000
     20 HZ3          3.9330     0.6390    -0.0270 ha         1 NO1       0.125000
     21 HF1C         2.0800    -2.1840     0.8730 h1         1 NO1       0.027200
     22 HF2C         2.0580    -2.1940    -0.8830 h1         1 NO1       0.027200
     23 HH2          3.1440     2.9500    -0.0320 ha         1 NO1       0.105000
     24 HH           4.1500    -2.6360     0.0010 ho         1 NO1       0.389000
     25 CB          -0.6450    -2.2750     0.0110 c3         1 NO1      -0.007900
@<TRIPOS>BOND
     1     1     2 1   
     2     1     3 1   
     3     1     5 1   
     4     4     5 2   
     5     4     7 1   
     6     4    25 1   
     7     5     6 1   
     8     6     8 1   
     9     6    18 1   
    10     7     8 ar  
    11     7     9 ar  
    12     8    10 ar  
    13     9    11 ar  
    14     9    13 1   
    15    10    12 ar  
    16    10    19 1   
    17    11    12 ar  
    18    11    20 1   
    19    12    23 1   
    20    13    14 1   
    21    13    21 1   
    22    13    22 1   
    23    14    24 1   
    24    15    25 1   
    25    16    25 1   
    26    17    25 1   
@<TRIPOS>SUBSTRUCTURE
     1 NO1         1 TEMP              0 ****  ****    0 ROOT
