@<TRIPOS>MOLECULE
NO1
   25    26     1     0     0
SMALL
No Charge or Current Charge


@<TRIPOS>ATOM
      1 C           -3.1500    -0.1870    -0.2020 c          1 NO1       0.727200
      2 O           -3.5230    -1.3480    -0.2740 o          1 NO1      -0.714500
      3 OXT         -3.9370     0.7500    -0.2520 o          1 NO1      -0.714500
      4 CG          -0.6000    -0.7450     0.0250 cc         1 NO1      -0.166400
      5 CD1         -1.6840     0.1490    -0.0850 cd         1 NO1      -0.086300
      6 NE1         -1.1890     1.4750    -0.0610 na         1 NO1      -0.196700
      7 CD2          0.6000     0.0810     0.0350 ca         1 NO1      -0.093800
      8 CE2          0.1820     1.3870     0.0100 ca         1 NO1      -0.068200
      9 CE3          1.9840    -0.2430     0.0430 ca         1 NO1      -0.050300
     10 CZ2          1.0780     2.4620     0.0360 ca         1 NO1      -0.128000
     11 CZ3          2.9000     0.8420     0.0880 ca         1 NO1      -0.139000
     12 CH2          2.4520     2.1800     0.0880 ca         1 NO1      -0.129000
     13 CF           2.4890    -1.6940    -0.0020 c3         1 NO1       0.207900
     14 OH           3.8540    -1.8020    -0.4350 oh         1 NO1      -0.667000
     15 HB1C        -0.5500    -2.7410    -0.8130 hc         1 NO1       0.029367
     16 HB2C         0.1360    -2.6230     0.8230 hc         1 NO1       0.029367
     17 HB3C        -1.5870    -2.5940     0.6190 hc         1 NO1       0.029367
     18 HE1         -1.7490     2.3200    -0.1150 hn         1 NO1       0.364000
     19 HZ2          0.7220     3.4900     0.0190 ha         1 NO1       0.098000
     20 HZ3          3.9710     0.6570     0.1180 ha         1 NO1       0.107000
     21 HF1C         2.3800    -2.1340     0.9990 h1         1 NO1       0.027200
     22 HF2C         1.8560    -2.2660    -0.6910 h1         1 NO1       0.027200
     23 HH2          3.1730     2.9940     0.1160 ha         1 NO1       0.087000
     24 HH           4.0730    -2.7600    -0.4360 ho         1 NO1       0.428000
     25 CB          -0.6540    -2.2520     0.1630 c3         1 NO1      -0.007900
@<TRIPOS>BOND
     1     1     2 1   
     2     1     3 1   
     3     1     5 1   
     4     4     5 2   
     5     4     7 1   
     6     4    25 1   
     7     5     6 1   
     8     6     8 1   
     9     6    18 1   
    10     7     8 ar  
    11     7     9 ar  
    12     8    10 ar  
    13     9    11 ar  
    14     9    13 1   
    15    10    12 ar  
    16    10    19 1   
    17    11    12 ar  
    18    11    20 1   
    19    12    23 1   
    20    13    14 1   
    21    13    21 1   
    22    13    22 1   
    23    14    24 1   
    24    15    25 1   
    25    16    25 1   
    26    17    25 1   
@<TRIPOS>SUBSTRUCTURE
     1 NO1         1 TEMP              0 ****  ****    0 ROOT
