@<TRIPOS>MOLECULE
NO2
    3     2     1     0     0
SMALL
abcg2


@<TRIPOS>ATOM
      1 N           25.1130    35.0170    31.9240 n2         1 NO2       0.086400
      2 O1          25.9880    35.8830    32.0960 o          1 NO2      -0.543700
      3 O2          23.9480    35.4360    31.8110 o          1 NO2      -0.543700
@<TRIPOS>BOND
     1     1     2 2   
     2     1     3 2   
@<TRIPOS>SUBSTRUCTURE
     1 NO2         1 TEMP              0 ****  ****    0 ROOT
