@<TRIPOS>MOLECULE
NO2
    3     2     1     0     0
SMALL
No Charge or Current Charge


@<TRIPOS>ATOM
      1 N           25.0860    35.1360    31.9290 n2         1 NO2       0.086400
      2 O1          26.0590    35.8360    32.1010 o          1 NO2      -0.543700
      3 O2          23.9040    35.3640    31.8000 o          1 NO2      -0.543700
@<TRIPOS>BOND
     1     1     2 2   
     2     1     3 2   
@<TRIPOS>SUBSTRUCTURE
     1 NO2         1 TEMP              0 ****  ****    0 ROOT
