@<TRIPOS>MOLECULE
NO3
    4     3     1     0     0
SMALL
No Charge or Current Charge


@<TRIPOS>ATOM
      1 N           -7.5610     9.9080    13.8180 no         1 NO3       0.901700
      2 O1          -7.7560    10.1550    12.6250 o          1 NO3      -0.695367
      3 O2          -6.6060     9.2070    14.1510 o          1 NO3      -0.603667
      4 O3          -8.3220    10.3640    14.6710 o          1 NO3      -0.603667
@<TRIPOS>BOND
     1     1     2 2   
     2     1     3 1   
     3     1     4 1   
@<TRIPOS>SUBSTRUCTURE
     1 NO3         1 TEMP              0 ****  ****    0 ROOT
