@<TRIPOS>MOLECULE
NO3
    4     3     1     0     0
SMALL
abcg2


@<TRIPOS>ATOM
      1 N           -7.5610     9.9090    13.8160 no         1 NO3       0.901700
      2 O1          -7.7570    10.1560    12.6210 o          1 NO3      -0.695367
      3 O2          -6.6020     9.2040    14.1530 o          1 NO3      -0.603667
      4 O3          -8.3250    10.3660    14.6750 o          1 NO3      -0.603667
@<TRIPOS>BOND
     1     1     2 2   
     2     1     3 1   
     3     1     4 1   
@<TRIPOS>SUBSTRUCTURE
     1 NO3         1 TEMP              0 ****  ****    0 ROOT
