@<TRIPOS>MOLECULE
NO4
   37    38     1     0     0
SMALL
abcg2


@<TRIPOS>ATOM
      1 C10          9.0910   -11.9860   -74.0770 ca         1 NO4      -0.111000
      2 C12         10.2310   -13.8150   -73.0050 ca         1 NO4      -0.099000
      3 C13         15.0320   -13.3970   -68.2780 c6         1 NO4      -0.039200
      4 C16         14.0710   -16.1040   -67.5110 c6         1 NO4      -0.039200
      5 C01         13.7880   -15.4670   -68.8400 c2         1 NO4      -0.223200
      6 C02         14.1990   -14.2490   -69.1990 c2         1 NO4      -0.122400
      7 C03         13.8160   -13.6440   -70.5180 c3         1 NO4      -0.079200
      8 C04         12.7910   -12.5080   -70.3630 c3         1 NO4       0.159800
      9 C06         10.7300   -13.8070   -70.5330 c3         1 NO4       0.207100
     10 C07         10.1720   -13.1630   -71.7780 ca         1 NO4      -0.086300
     11 C08          9.5710   -11.9070   -71.7180 ca         1 NO4      -0.099000
     12 C09          9.0330   -11.3240   -72.8550 ca         1 NO4      -0.115000
     13 C11          9.6920   -13.2340   -74.1490 ca         1 NO4      -0.115000
     14 C14         15.6190   -14.1810   -67.1100 c6         1 NO4      -0.072400
     15 C15         14.5680   -15.0900   -66.4870 c6         1 NO4      -0.073400
     16 N05         11.5270   -12.8790   -69.7550 n7         1 NO4      -0.863400
     17 H101         8.6740   -11.5300   -74.9650 ha         1 NO4       0.110000
     18 H121        10.7070   -14.7860   -73.0710 ha         1 NO4       0.116000
     19 H132        14.4250   -12.5660   -67.8990 hc         1 NO4       0.045700
     20 H161        13.1680   -16.6020   -67.1450 hc         1 NO4       0.045700
     21 H162        14.8120   -16.9010   -67.6390 hc         1 NO4       0.045700
     22 H011        13.2050   -16.0510   -69.5480 ha         1 NO4       0.166000
     23 H032        13.4160   -14.4150   -71.1820 hc         1 NO4       0.049200
     24 H031        14.7020   -13.2340   -71.0150 hc         1 NO4       0.049200
     25 H041        13.2280   -11.7040   -69.7660 h1         1 NO4       0.054700
     26 H042        12.5890   -12.0760   -71.3460 h1         1 NO4       0.054700
     27 H062         9.8990   -14.1340   -69.9020 h1         1 NO4       0.035700
     28 H061        11.2650   -14.7240   -70.8210 h1         1 NO4       0.035700
     29 H081         9.5330   -11.3820   -70.7710 ha         1 NO4       0.116000
     30 H091         8.5660   -10.3490   -72.7910 ha         1 NO4       0.110500
     31 H111         9.7530   -13.7560   -75.0960 ha         1 NO4       0.110500
     32 H141        16.4570   -14.7900   -67.4640 hc         1 NO4       0.040700
     33 H142        16.0280   -13.4930   -66.3670 hc         1 NO4       0.040700
     34 H151        13.7270   -14.4840   -66.1360 hc         1 NO4       0.040200
     35 H152        14.9710   -15.6050   -65.6120 hc         1 NO4       0.040200
     36 H051        11.6980   -13.2820   -68.8420 hn         1 NO4       0.418000
     37 H131        15.8350   -12.9250   -68.8550 hc         1 NO4       0.045700
@<TRIPOS>BOND
     1     1    12 ar  
     2     1    13 ar  
     3     1    17 1   
     4     2    10 ar  
     5     2    13 ar  
     6     2    18 1   
     7     3     6 1   
     8     3    14 1   
     9     3    19 1   
    10     3    37 1   
    11     4     5 1   
    12     4    15 1   
    13     4    20 1   
    14     4    21 1   
    15     5     6 2   
    16     5    22 1   
    17     6     7 1   
    18     7     8 1   
    19     7    23 1   
    20     7    24 1   
    21     8    16 1   
    22     8    25 1   
    23     8    26 1   
    24     9    10 1   
    25     9    16 1   
    26     9    27 1   
    27     9    28 1   
    28    10    11 ar  
    29    11    12 ar  
    30    11    29 1   
    31    12    30 1   
    32    13    31 1   
    33    14    15 1   
    34    14    32 1   
    35    14    33 1   
    36    15    34 1   
    37    15    35 1   
    38    16    36 1   
@<TRIPOS>SUBSTRUCTURE
     1 NO4         1 TEMP              0 ****  ****    0 ROOT
