@<TRIPOS>MOLECULE
NO4
   37    38     1     0     0
SMALL
No Charge or Current Charge


@<TRIPOS>ATOM
      1 C10          9.1570   -12.0340   -74.1180 ca         1 NO4      -0.111000
      2 C12         10.5190   -13.6470   -72.9050 ca         1 NO4      -0.099000
      3 C13         15.0310   -13.4410   -68.3360 c6         1 NO4      -0.039200
      4 C16         14.0320   -16.1570   -67.5020 c6         1 NO4      -0.039200
      5 C01         13.7020   -15.5180   -68.8460 c2         1 NO4      -0.223200
      6 C02         14.1370   -14.3030   -69.2320 c2         1 NO4      -0.122400
      7 C03         13.7760   -13.6880   -70.5780 c3         1 NO4      -0.079200
      8 C04         12.8550   -12.4480   -70.4740 c3         1 NO4       0.159800
      9 C06         10.6340   -13.6440   -70.3580 c3         1 NO4       0.207100
     10 C07         10.1180   -13.0780   -71.6790 ca         1 NO4      -0.086300
     11 C08          9.2310   -11.9830   -71.6840 ca         1 NO4      -0.099000
     12 C09          8.7520   -11.4620   -72.8990 ca         1 NO4      -0.115000
     13 C11         10.0410   -13.1260   -74.1200 ca         1 NO4      -0.115000
     14 C14         15.6540   -14.2340   -67.1620 c6         1 NO4      -0.072400
     15 C15         14.5970   -15.1350   -66.4890 c6         1 NO4      -0.073400
     16 N05         11.6190   -12.7470   -69.7130 n7         1 NO4      -0.863400
     17 H101         8.7870   -11.6300   -75.0580 ha         1 NO4       0.110000
     18 H121        11.2030   -14.4930   -72.9160 ha         1 NO4       0.116000
     19 H132        14.4440   -12.6020   -67.9400 hc         1 NO4       0.045700
     20 H161        13.1320   -16.6270   -67.0830 hc         1 NO4       0.045700
     21 H162        14.7590   -16.9660   -67.6600 hc         1 NO4       0.045700
     22 H011        13.0660   -16.1110   -69.5050 ha         1 NO4       0.166000
     23 H032        13.2920   -14.4330   -71.2200 hc         1 NO4       0.049200
     24 H031        14.6900   -13.3980   -71.1100 hc         1 NO4       0.049200
     25 H041        13.4140   -11.6480   -69.9690 h1         1 NO4       0.054700
     26 H042        12.6230   -12.0820   -71.4830 h1         1 NO4       0.054700
     27 H062         9.7760   -13.7930   -69.6880 h1         1 NO4       0.035700
     28 H061        11.0710   -14.6370   -70.5320 h1         1 NO4       0.035700
     29 H081         8.9170   -11.5350   -70.7440 ha         1 NO4       0.116000
     30 H091         8.0690   -10.6160   -72.8960 ha         1 NO4       0.110500
     31 H111        10.3550   -13.5690   -75.0620 ha         1 NO4       0.110500
     32 H141        16.4820   -14.8550   -67.5330 hc         1 NO4       0.040700
     33 H142        16.0870   -13.5400   -66.4280 hc         1 NO4       0.040700
     34 H151        13.7810   -14.5130   -66.0950 hc         1 NO4       0.040200
     35 H152        15.0350   -15.6610   -65.6290 hc         1 NO4       0.040200
     36 H051        11.9110   -13.1890   -68.8340 hn         1 NO4       0.418000
     37 H131        15.8420   -12.9970   -68.9310 hc         1 NO4       0.045700
@<TRIPOS>BOND
     1     1    12 ar  
     2     1    13 ar  
     3     1    17 1   
     4     2    10 ar  
     5     2    13 ar  
     6     2    18 1   
     7     3     6 1   
     8     3    14 1   
     9     3    19 1   
    10     3    37 1   
    11     4     5 1   
    12     4    15 1   
    13     4    20 1   
    14     4    21 1   
    15     5     6 2   
    16     5    22 1   
    17     6     7 1   
    18     7     8 1   
    19     7    23 1   
    20     7    24 1   
    21     8    16 1   
    22     8    25 1   
    23     8    26 1   
    24     9    10 1   
    25     9    16 1   
    26     9    27 1   
    27     9    28 1   
    28    10    11 ar  
    29    11    12 ar  
    30    11    29 1   
    31    12    30 1   
    32    13    31 1   
    33    14    15 1   
    34    14    32 1   
    35    14    33 1   
    36    15    34 1   
    37    15    35 1   
    38    16    36 1   
@<TRIPOS>SUBSTRUCTURE
     1 NO4         1 TEMP              0 ****  ****    0 ROOT
