@<TRIPOS>MOLECULE
NO5
   23    22     1     0     0
SMALL
No Charge or Current Charge


@<TRIPOS>ATOM
      1 C13          0.6190     0.4970    -0.4410 c3         1 NO5       0.048500
      2 C12          1.6560     1.2790     0.4320 c3         1 NO5      -0.036700
      3 C2           3.0740     1.3030    -0.1920 c3         1 NO5      -0.079600
      4 C1           1.1930     2.7280     0.7400 c3         1 NO5      -0.079600
      5 C14          1.1670    -0.9220    -0.8790 c          1 NO5       0.675000
      6 O20         -1.7400    -0.5140    -1.8130 o          1 NO5      -0.580500
      7 S18         -1.9940    -0.3010    -0.3950 s6         1 NO5       1.242200
      8 O21         -3.2010     0.3470     0.1020 o          1 NO5      -0.580500
      9 N19         -1.8580    -1.7380     0.3070 n8         1 NO5      -1.023100
     10 N17         -0.7020     0.4430     0.2870 n7         1 NO5      -0.863300
     11 O15          0.9370    -1.8780    -0.1480 o          1 NO5      -0.716500
     12 O16          1.6690    -1.0400    -1.9880 o          1 NO5      -0.716500
     13 H1           0.4910     1.0650    -1.3730 h1         1 NO5       0.068700
     14 H2           1.7430     0.7540     1.3920 hc         1 NO5       0.050700
     15 H3           3.0510     1.7470    -1.1950 hc         1 NO5       0.025533
     16 H4           3.7590     1.8950     0.4270 hc         1 NO5       0.025533
     17 H5           3.4940     0.2940    -0.2670 hc         1 NO5       0.025533
     18 H6           0.2500     2.7370     1.2980 hc         1 NO5       0.025533
     19 H7           1.9400     3.2510     1.3490 hc         1 NO5       0.025533
     20 H8           1.0500     3.2950    -0.1870 hc         1 NO5       0.025533
     21 H9          -0.8940    -1.9820     0.0540 hn         1 NO5       0.479000
     22 H10         -2.4160    -2.3120    -0.3180 hn         1 NO5       0.479000
     23 H11         -0.5990    -0.1750     1.0880 hn         1 NO5       0.479000
@<TRIPOS>BOND
     1     1     2 1   
     2     1     5 1   
     3     1    10 1   
     4     1    13 1   
     5     2     3 1   
     6     2     4 1   
     7     2    14 1   
     8     3    15 1   
     9     3    16 1   
    10     3    17 1   
    11     4    18 1   
    12     4    19 1   
    13     4    20 1   
    14     5    11 1   
    15     5    12 1   
    16     6     7 2   
    17     7     8 2   
    18     7     9 1   
    19     7    10 1   
    20     9    21 1   
    21     9    22 1   
    22    10    23 1   
@<TRIPOS>SUBSTRUCTURE
     1 NO5         1 TEMP              0 ****  ****    0 ROOT
