@<TRIPOS>MOLECULE
NO5
   23    22     1     0     0
SMALL
abcg2


@<TRIPOS>ATOM
      1 C13          0.6380     0.3410    -0.2550 c3         1 NO5       0.048500
      2 C12          1.6610     1.2870     0.3920 c3         1 NO5      -0.036700
      3 C2           2.9730     1.2850    -0.3870 c3         1 NO5      -0.079600
      4 C1           1.1160     2.7070     0.5020 c3         1 NO5      -0.079600
      5 C14          1.1990    -1.0970    -0.3680 c          1 NO5       0.675000
      6 O20         -2.2130     0.6720    -1.3130 o          1 NO5      -0.580500
      7 S18         -1.9850    -0.1550    -0.1430 s6         1 NO5       1.242200
      8 O21         -2.9670    -0.2060     0.9230 o          1 NO5      -0.580500
      9 N19         -1.8510    -1.7000    -0.7220 n8         1 NO5      -1.023100
     10 N17         -0.5870     0.3580     0.5540 n7         1 NO5      -0.863300
     11 O15          1.2450    -1.7380     0.7000 o          1 NO5      -0.716500
     12 O16          1.5550    -1.4810    -1.4980 o          1 NO5      -0.716500
     13 H1           0.3960     0.7330    -1.2470 h1         1 NO5       0.068700
     14 H2           1.8620     0.9120     1.4020 hc         1 NO5       0.050700
     15 H3           2.8150     1.5910    -1.4230 hc         1 NO5       0.025533
     16 H4           3.6780     1.9880     0.0600 hc         1 NO5       0.025533
     17 H5           3.4550     0.3080    -0.3990 hc         1 NO5       0.025533
     18 H6           0.1990     2.7460     1.0900 hc         1 NO5       0.025533
     19 H7           1.8470     3.3610     0.9790 hc         1 NO5       0.025533
     20 H8           0.8980     3.1190    -0.4860 hc         1 NO5       0.025533
     21 H9          -1.5850    -2.3670    -0.0060 hn         1 NO5       0.479000
     22 H10         -1.2240    -1.7750    -1.5170 hn         1 NO5       0.479000
     23 H11         -0.4360    -0.1150     1.4430 hn         1 NO5       0.479000
@<TRIPOS>BOND
     1     1     2 1   
     2     1     5 1   
     3     1    10 1   
     4     1    13 1   
     5     2     3 1   
     6     2     4 1   
     7     2    14 1   
     8     3    15 1   
     9     3    16 1   
    10     3    17 1   
    11     4    18 1   
    12     4    19 1   
    13     4    20 1   
    14     5    11 1   
    15     5    12 1   
    16     6     7 2   
    17     7     8 2   
    18     7     9 1   
    19     7    10 1   
    20     9    21 1   
    21     9    22 1   
    22    10    23 1   
@<TRIPOS>SUBSTRUCTURE
     1 NO5         1 TEMP              0 ****  ****    0 ROOT
