@<TRIPOS>MOLECULE
NO6
   25    25     1     0     0
SMALL
No Charge or Current Charge


@<TRIPOS>ATOM
      1 C11          6.1460   -21.9530    -0.2100 c3         1 NO6       0.022500
      2 N2           5.0510   -25.7720     3.8740 nb         1 NO6      -0.634000
      3 C3           4.5480   -24.5140     3.9060 ca         1 NO6       0.386300
      4 C5           2.8300   -25.1390     5.5040 ca         1 NO6      -0.083000
      5 C6           3.3510   -26.4410     5.4650 ca         1 NO6      -0.189000
      6 C8           5.2420   -23.4710     3.0360 c3         1 NO6      -0.009700
      7 C10          5.2170   -21.4970     0.9550 c3         1 NO6       0.113600
      8 C1           4.4570   -26.7130     4.6410 ca         1 NO6       0.337900
      9 C12          7.3140   -22.8840     0.3320 c          1 NO6       0.732000
     10 C4           3.4450   -24.1600     4.7080 ca         1 NO6      -0.163000
     11 N15          5.3570   -22.4240    -1.4180 n8         1 NO6      -0.997200
     12 O13          8.0770   -22.4190     1.1690 o          1 NO6      -0.727000
     13 O14          7.4740   -23.9940    -0.1630 o          1 NO6      -0.727000
     14 S9           4.1580   -22.8590     1.6530 ss         1 NO6      -0.413000
     15 H1           6.6590   -21.0460    -0.5570 h1         1 NO6      -0.001300
     16 H2           1.9750   -24.8950     6.1320 ha         1 NO6       0.102000
     17 H3           2.9100   -27.2340     6.0630 ha         1 NO6       0.107000
     18 H4           6.1580   -23.9000     2.6130 h1         1 NO6       0.079700
     19 H5           5.5300   -22.6220     3.6690 h1         1 NO6       0.079700
     20 H6           5.8160   -21.0570     1.7620 h1         1 NO6       0.041700
     21 H7           4.5480   -20.7110     0.5820 h1         1 NO6       0.041700
     22 H8           4.8810   -27.7150     4.5940 h4         1 NO6       0.011100
     23 H9           3.0750   -23.1380     4.7050 ha         1 NO6       0.120000
     24 H10          4.7970   -21.6480    -1.7890 hn         1 NO6       0.384000
     25 H11          6.0100   -22.6500    -2.1780 hn         1 NO6       0.384000
@<TRIPOS>BOND
     1     1     7 1   
     2     1     9 1   
     3     1    11 1   
     4     1    15 1   
     5     2     3 ar  
     6     2     8 ar  
     7     3     6 1   
     8     3    10 ar  
     9     4     5 ar  
    10     4    10 ar  
    11     4    16 1   
    12     5     8 ar  
    13     5    17 1   
    14     6    14 1   
    15     6    18 1   
    16     6    19 1   
    17     7    14 1   
    18     7    20 1   
    19     7    21 1   
    20     8    22 1   
    21     9    12 1   
    22     9    13 1   
    23    10    23 1   
    24    11    24 1   
    25    11    25 1   
@<TRIPOS>SUBSTRUCTURE
     1 NO6         1 TEMP              0 ****  ****    0 ROOT
