@<TRIPOS>MOLECULE
NO6
   25    25     1     0     0
SMALL
bcc


@<TRIPOS>ATOM
      1 C11          6.1780   -21.9940    -0.2540 c3         1 NO6       0.022500
      2 N2           5.1470   -25.5000     3.9690 nb         1 NO6      -0.634000
      3 C3           4.5430   -24.3170     4.0510 ca         1 NO6       0.451600
      4 C5           2.7560   -25.2320     5.3530 ca         1 NO6      -0.101000
      5 C6           3.3890   -26.4630     5.2730 ca         1 NO6      -0.272300
      6 C8           5.1910   -23.1650     3.3470 c3         1 NO6      -0.057600
      7 C10          5.4320   -21.6250     1.0160 c3         1 NO6       0.065700
      8 C1           4.5800   -26.5400     4.5680 ca         1 NO6       0.403200
      9 C12          7.2520   -23.0840     0.0070 c          1 NO6       0.942600
     10 C4           3.3410   -24.1420     4.7310 ca         1 NO6      -0.246300
     11 N15          5.2270   -22.4110    -1.2680 n8         1 NO6      -0.886800
     12 O13          7.9290   -22.9450     1.0440 o          1 NO6      -0.832300
     13 O14          7.3740   -23.9720    -0.8570 o          1 NO6      -0.832300
     14 S9           4.4950   -23.0520     1.6640 ss         1 NO6      -0.317200
     15 H1           6.7370   -21.0900    -0.5550 h1         1 NO6      -0.001300
     16 H2           1.8240   -25.1220     5.8920 ha         1 NO6       0.120000
     17 H3           2.9740   -27.3440     5.7440 ha         1 NO6       0.125000
     18 H4           6.2670   -23.3170     3.2700 h1         1 NO6       0.079700
     19 H5           5.0030   -22.2330     3.8810 h1         1 NO6       0.079700
     20 H6           6.1210   -21.2890     1.7880 h1         1 NO6       0.041700
     21 H7           4.7280   -20.8130     0.8260 h1         1 NO6       0.041700
     22 H8           5.1040   -27.4860     4.4850 h4         1 NO6       0.011100
     23 H9           2.8780   -23.1640     4.7710 ha         1 NO6       0.138000
     24 H10          4.8360   -21.6030    -1.7360 hn         1 NO6       0.328800
     25 H11          5.7200   -22.9530    -1.9640 hn         1 NO6       0.328800
@<TRIPOS>BOND
     1     1     7 1   
     2     1     9 1   
     3     1    11 1   
     4     1    15 1   
     5     2     3 ar  
     6     2     8 ar  
     7     3     6 1   
     8     3    10 ar  
     9     4     5 ar  
    10     4    10 ar  
    11     4    16 1   
    12     5     8 ar  
    13     5    17 1   
    14     6    14 1   
    15     6    18 1   
    16     6    19 1   
    17     7    14 1   
    18     7    20 1   
    19     7    21 1   
    20     8    22 1   
    21     9    12 1   
    22     9    13 1   
    23    10    23 1   
    24    11    24 1   
    25    11    25 1   
@<TRIPOS>SUBSTRUCTURE
     1 NO6         1 TEMP              0 ****  ****    0 ROOT
