@<TRIPOS>MOLECULE
NO8
  111   113     1     0     0
SMALL
No Charge or Current Charge


@<TRIPOS>ATOM
      1 C4          58.9690   -16.9760    31.4250 c6         1 NO8       0.112300
      2 C5          58.6290   -18.4630    31.0780 c6         1 NO8       0.176300
      3 C6          59.5210   -19.4810    31.8630 c3         1 NO8       0.171600
      4 C8          53.4600   -14.4540    29.6200 c3         1 NO8      -0.182100
      5 N2          55.5620   -15.5590    30.2090 ns         1 NO8      -0.497900
      6 C3          57.9940   -16.0370    30.6530 c6         1 NO8       0.123300
      7 CB          67.9870   -26.0310    20.1240 c3         1 NO8      -0.089100
      8 CA          66.8610   -25.0030    19.8650 c3         1 NO8       0.105500
      9 N           67.4320   -23.7360    19.2850 n8         1 NO8      -1.011200
     10 O           64.7750   -25.4110    21.0500 o          1 NO8      -0.606100
     11 NAF         66.2270   -24.1030    22.2380 n          1 NO8      -0.402800
     12 CAL         67.5230   -23.4190    22.4430 c5         1 NO8       0.106000
     13 CAK         67.5280   -23.2380    23.9790 c5         1 NO8      -0.094400
     14 CAJ         66.0550   -22.8600    24.2520 c5         1 NO8      -0.088400
     15 CAG         65.2790   -23.8930    23.3770 c5         1 NO8       0.028700
     16 CAH         63.8950   -23.2640    23.0010 c          1 NO8       0.615100
     17 OAI         63.6210   -22.5920    22.0130 o          1 NO8      -0.592100
     18 NAM         62.9740   -23.5660    23.9850 ns         1 NO8      -0.478900
     19 CAN         61.5700   -23.0930    23.9930 c3         1 NO8       0.027000
     20 OAP         62.2540   -21.3910    25.6140 o          1 NO8      -0.603100
     21 NAQ         60.0730   -21.3890    24.9580 ns         1 NO8      -0.493900
     22 CAR         59.6120   -20.2330    25.7690 c3         1 NO8       0.001700
     23 CAU         60.1500   -18.8930    25.1990 c3         1 NO8       0.167600
     24 OAV         59.8250   -17.7980    26.0670 oh         1 NO8      -0.687000
     25 OAT         57.3530   -20.8880    25.0970 o          1 NO8      -0.590100
     26 NAW         57.5240   -19.4180    26.8210 ns         1 NO8      -0.497900
     27 CAX         56.0690   -19.2090    27.0630 c3         1 NO8       0.036700
     28 CBA         55.7380   -19.2630    28.5730 c3         1 NO8       0.178300
     29 CBB         56.1250   -20.6160    29.2170 c3         1 NO8      -0.125100
     30 O1          56.4770   -18.1850    29.1900 os         1 NO8      -0.520000
     31 C1          56.2990   -17.9410    30.6050 c6         1 NO8       0.373300
     32 O5          57.2310   -18.7530    31.3540 os         1 NO8      -0.441000
     33 O6          59.2660   -20.8590    31.5140 oh         1 NO8      -0.715000
     34 O4          58.8660   -16.6950    32.8350 oh         1 NO8      -0.705000
     35 O3          58.2400   -14.6660    31.0280 oh         1 NO8      -0.650000
     36 C2          56.5110   -16.4310    30.9420 c6         1 NO8       0.095700
     37 O7          53.6920   -16.0740    31.3910 o          1 NO8      -0.601100
     38 CBE         56.3380   -15.7310    25.2890 c3         1 NO8       0.035700
     39 CBH         55.9560   -14.6590    26.3360 c3         1 NO8      -0.105100
     40 CBF         57.6050   -15.3200    24.4690 c          1 NO8       0.602100
     41 OBG         58.6680   -15.9230    24.5990 o          1 NO8      -0.636100
     42 NBI         57.5270   -14.2060    23.6050 n          1 NO8      -0.384800
     43 CBO         56.2580   -13.7130    23.0220 c5         1 NO8       0.106000
     44 CBN         56.7480   -13.0480    21.7100 c5         1 NO8      -0.093400
     45 CBM         58.1050   -12.4430    22.1430 c5         1 NO8      -0.086400
     46 CBJ         58.7300   -13.6220    22.9470 c5         1 NO8       0.021700
     47 CBK         59.8290   -13.0600    23.9080 c          1 NO8       0.608100
     48 OBL         59.7560   -12.9740    25.1240 o          1 NO8      -0.599100
     49 NBP         60.9450   -12.6190    23.2800 nt         1 NO8      -0.602000
     50 H1          59.9940   -16.7690    31.0810 h1         1 NO8       0.034700
     51 H2          58.8190   -18.6250    30.0070 h1         1 NO8       0.059700
     52 H3          59.3520   -19.3310    32.9380 h1         1 NO8       0.037700
     53 H4          60.5730   -19.2340    31.6630 h1         1 NO8       0.037700
     54 H5          52.4470   -14.2650    29.9910 hc         1 NO8       0.061367
     55 H6          54.0400   -13.5310    29.5030 hc         1 NO8       0.061367
     56 H7          53.4280   -14.8520    28.6010 hc         1 NO8       0.061367
     57 H8          55.9250   -14.9790    29.4630 hn         1 NO8       0.319500
     58 H9          58.1760   -16.1620    29.5750 h1         1 NO8       0.045700
     59 H11         68.5510   -26.2220    19.2030 hc         1 NO8       0.044033
     60 H12         68.6940   -25.6940    20.8880 hc         1 NO8       0.044033
     61 H13         66.2360   -25.4430    19.0730 h1         1 NO8       0.092700
     62 H14         66.6660   -23.0910    19.0500 hn         1 NO8       0.408500
     63 H15         67.9570   -23.2310    20.0070 hn         1 NO8       0.408500
     64 H18         67.5360   -22.4490    21.9280 h1         1 NO8       0.048700
     65 H19         67.7990   -24.1720    24.4870 hc         1 NO8       0.053200
     66 H20         68.2340   -22.4680    24.3080 hc         1 NO8       0.053200
     67 H21         65.8570   -21.8290    23.9320 hc         1 NO8       0.074200
     68 H22         65.7890   -22.9240    25.3130 hc         1 NO8       0.074200
     69 H23         65.1200   -24.8380    23.9120 h1         1 NO8       0.066700
     70 H24         63.3080   -24.1050    24.7760 hn         1 NO8       0.321500
     71 H25         60.9160   -23.9050    24.3350 h1         1 NO8       0.073700
     72 H26         61.2570   -22.8050    22.9820 h1         1 NO8       0.073700
     73 H27         59.3880   -21.8640    24.3770 hn         1 NO8       0.325500
     74 H28         59.9900   -20.3580    26.7920 h1         1 NO8       0.071700
     75 H29         59.7170   -18.7330    24.2020 h1         1 NO8       0.050200
     76 H30         61.2390   -18.9590    25.0760 h1         1 NO8       0.050200
     77 H31         59.5800   -17.0280    25.4780 ho         1 NO8       0.491000
     78 H32         58.1850   -18.9230    27.4120 hn         1 NO8       0.335500
     79 H33         55.5030   -20.0040    26.5610 h1         1 NO8       0.114700
     80 H34         54.6570   -19.1090    28.6990 h1         1 NO8       0.058700
     81 H35         55.7270   -20.6950    30.2350 hc         1 NO8       0.057700
     82 H36         55.7090   -21.4470    28.6360 hc         1 NO8       0.057700
     83 H37         57.2130   -20.7390    29.2570 hc         1 NO8       0.057700
     84 H38         55.2720   -18.2110    30.8950 h2         1 NO8       0.089700
     85 H39         59.7980   -21.4140    32.1300 ho         1 NO8       0.500000
     86 H40         58.7230   -15.7190    32.8840 ho         1 NO8       0.518000
     87 H41         58.9740   -14.3360    30.4630 ho         1 NO8       0.445000
     88 H42         56.3200   -16.3070    32.0170 h1         1 NO8       0.118700
     89 H43         57.5050   -17.3720    26.0380 hn         1 NO8       0.330500
     90 H44         55.5100   -15.8420    24.5780 h1         1 NO8       0.083700
     91 H45         55.0410   -14.9450    26.8650 hc         1 NO8       0.055367
     92 H46         56.7580   -14.5390    27.0740 hc         1 NO8       0.055367
     93 H47         55.7780   -13.6850    25.8670 hc         1 NO8       0.055367
     94 H48         55.5390   -14.5170    22.8180 h1         1 NO8       0.054700
     95 H49         55.7840   -12.9770    23.6850 h1         1 NO8       0.054700
     96 H50         56.0450   -12.2950    21.3350 hc         1 NO8       0.060200
     97 H51         56.8830   -13.7940    20.9180 hc         1 NO8       0.060200
     98 H52         57.9540   -11.5580    22.7740 hc         1 NO8       0.062200
     99 H53         58.7220   -12.1360    21.2900 hc         1 NO8       0.062200
    100 H54         59.1960   -14.3580    22.2790 h1         1 NO8       0.074700
    101 H55         61.6990   -12.2360    23.8300 hn         1 NO8       0.316000
    102 H56         61.0200   -12.6780    22.2750 hn         1 NO8       0.316000
    103 CAY         55.5710   -17.8750    26.4410 c          1 NO8       0.593100
    104 C7          54.2250   -15.4380    30.4940 c          1 NO8       0.607100
    105 OAZ         54.3830   -17.5920    26.3560 o          1 NO8      -0.606100
    106 CAS         58.0620   -20.2270    25.8460 c          1 NO8       0.596100
    107 NBD         56.5530   -17.0410    25.9410 ns         1 NO8      -0.483900
    108 CAO         61.3610   -21.8810    24.9330 c          1 NO8       0.581100
    109 H17         68.3880   -24.0050    22.1150 h1         1 NO8       0.048700
    110 C           65.8710   -24.8630    21.0920 c          1 NO8       0.568100
    111 H10         67.5590   -26.9840    20.4570 hc         1 NO8       0.044033
@<TRIPOS>BOND
     1     1     2 1   
     2     1     6 1   
     3     1    34 1   
     4     1    50 1   
     5     2     3 1   
     6     2    32 1   
     7     2    51 1   
     8     3    33 1   
     9     3    52 1   
    10     3    53 1   
    11     4    54 1   
    12     4    55 1   
    13     4    56 1   
    14     4   104 1   
    15     5    36 1   
    16     5    57 1   
    17     5   104 1   
    18     6    35 1   
    19     6    36 1   
    20     6    58 1   
    21     7     8 1   
    22     7    59 1   
    23     7    60 1   
    24     7   111 1   
    25     8     9 1   
    26     8    61 1   
    27     8   110 1   
    28     9    62 1   
    29     9    63 1   
    30    10   110 2   
    31    11    12 1   
    32    11    15 1   
    33    11   110 1   
    34    12    13 1   
    35    12    64 1   
    36    12   109 1   
    37    13    14 1   
    38    13    65 1   
    39    13    66 1   
    40    14    15 1   
    41    14    67 1   
    42    14    68 1   
    43    15    16 1   
    44    15    69 1   
    45    16    17 2   
    46    16    18 1   
    47    18    19 1   
    48    18    70 1   
    49    19    71 1   
    50    19    72 1   
    51    19   108 1   
    52    20   108 2   
    53    21    22 1   
    54    21    73 1   
    55    21   108 1   
    56    22    23 1   
    57    22    74 1   
    58    22   106 1   
    59    23    24 1   
    60    23    75 1   
    61    23    76 1   
    62    24    77 1   
    63    25   106 2   
    64    26    27 1   
    65    26    78 1   
    66    26   106 1   
    67    27    28 1   
    68    27    79 1   
    69    27   103 1   
    70    28    29 1   
    71    28    30 1   
    72    28    80 1   
    73    29    81 1   
    74    29    82 1   
    75    29    83 1   
    76    30    31 1   
    77    31    32 1   
    78    31    36 1   
    79    31    84 1   
    80    33    85 1   
    81    34    86 1   
    82    35    87 1   
    83    36    88 1   
    84    37   104 2   
    85    38    39 1   
    86    38    40 1   
    87    38    90 1   
    88    38   107 1   
    89    39    91 1   
    90    39    92 1   
    91    39    93 1   
    92    40    41 2   
    93    40    42 1   
    94    42    43 1   
    95    42    46 1   
    96    43    44 1   
    97    43    94 1   
    98    43    95 1   
    99    44    45 1   
   100    44    96 1   
   101    44    97 1   
   102    45    46 1   
   103    45    98 1   
   104    45    99 1   
   105    46    47 1   
   106    46   100 1   
   107    47    48 2   
   108    47    49 1   
   109    49   101 1   
   110    49   102 1   
   111    89   107 1   
   112   103   105 2   
   113   103   107 1   
@<TRIPOS>SUBSTRUCTURE
     1 NO8         1 TEMP              0 ****  ****    0 ROOT
