@<TRIPOS>MOLECULE
NO8
  111   113     1     0     0
SMALL
bcc


@<TRIPOS>ATOM
      1 C4          60.8850   -18.7270    30.0820 c6         1 NO8       0.089100
      2 C5          60.5510   -19.9300    29.2120 c6         1 NO8       0.153100
      3 C6          61.4710   -21.1070    29.4590 c3         1 NO8       0.148400
      4 C8          55.4030   -15.9190    29.7820 c3         1 NO8      -0.182100
      5 N2          57.4650   -17.1480    29.6930 ns         1 NO8      -0.564900
      6 C3          59.8670   -17.6080    29.8320 c6         1 NO8       0.100100
      7 CB          67.5840   -25.7730    24.3300 c3         1 NO8      -0.089100
      8 CA          67.3410   -24.2920    24.0520 c3         1 NO8       0.105500
      9 N           67.8900   -23.4730    25.1130 n8         1 NO8      -0.900800
     10 O           65.5860   -23.9760    22.4650 o          1 NO8      -0.606100
     11 NAF         64.9220   -23.9450    24.5950 n          1 NO8      -0.469800
     12 CAL         65.0260   -24.1330    26.0380 c5         1 NO8       0.106000
     13 CAK         63.6060   -24.5080    26.4310 c5         1 NO8      -0.094400
     14 CAJ         62.7620   -23.6570    25.4920 c5         1 NO8      -0.088400
     15 CAG         63.5550   -23.6950    24.1750 c5         1 NO8       0.028700
     16 CAH         63.4180   -22.3730    23.4370 c          1 NO8       0.682100
     17 OAI         64.0880   -21.3940    23.7170 o          1 NO8      -0.592100
     18 NAM         62.4500   -22.3540    22.5030 ns         1 NO8      -0.545900
     19 CAN         61.9790   -21.1180    21.9560 c3         1 NO8       0.027000
     20 OAP         60.9200   -20.7270    24.0840 o          1 NO8      -0.603100
     21 NAQ         61.0490   -18.9920    22.6650 ns         1 NO8      -0.560900
     22 CAR         60.4320   -18.0800    23.5940 c3         1 NO8       0.001700
     23 CAU         60.4150   -16.6650    23.0030 c3         1 NO8       0.144400
     24 OAV         59.8710   -15.7430    23.9050 oh         1 NO8      -0.624800
     25 OAT         58.1790   -18.6460    23.0000 o          1 NO8      -0.590100
     26 NAW         58.7040   -18.6200    25.1990 ns         1 NO8      -0.564900
     27 CAX         57.3730   -18.8630    25.6900 c3         1 NO8       0.036700
     28 CBA         57.4210   -19.7400    26.9420 c3         1 NO8       0.155100
     29 CBB         57.9560   -21.1310    26.6450 c3         1 NO8      -0.125100
     30 O1          58.2170   -19.0060    27.8530 os         1 NO8      -0.473600
     31 C1          58.2380   -19.4080    29.1870 c6         1 NO8       0.326900
     32 O5          59.2190   -20.3630    29.4390 os         1 NO8      -0.394600
     33 O6          61.2470   -22.0700    28.4530 oh         1 NO8      -0.592800
     34 O4          60.8850   -19.1210    31.4310 oh         1 NO8      -0.582800
     35 O3          60.0560   -16.5430    30.7330 oh         1 NO8      -0.587800
     36 C2          58.4510   -18.1410    30.0280 c6         1 NO8       0.095700
     37 O7          56.0910   -17.4980    31.4550 o          1 NO8      -0.601100
     38 CBE         56.7520   -15.1380    26.0910 c3         1 NO8       0.035700
     39 CBH         57.7120   -14.1400    26.7360 c3         1 NO8      -0.105100
     40 CBF         56.4720   -14.7040    24.6510 c          1 NO8       0.669100
     41 OBG         57.1010   -15.1870    23.7100 o          1 NO8      -0.636100
     42 NBI         55.5700   -13.7410    24.4570 n          1 NO8      -0.451800
     43 CBO         54.6670   -13.1500    25.4400 c5         1 NO8       0.106000
     44 CBN         53.5900   -12.5260    24.5650 c5         1 NO8      -0.093400
     45 CBM         54.3740   -12.0450    23.3510 c5         1 NO8      -0.086400
     46 CBJ         55.4210   -13.1500    23.1380 c5         1 NO8       0.021700
     47 CBK         56.7420   -12.5590    22.6540 c          1 NO8       0.675100
     48 OBL         57.5540   -12.0900    23.4330 o          1 NO8      -0.599100
     49 NBP         56.8830   -12.5370    21.3230 nt         1 NO8      -0.669000
     50 H1          61.8780   -18.3590    29.7760 h1         1 NO8       0.034700
     51 H2          60.6810   -19.6180    28.1660 h1         1 NO8       0.059700
     52 H3          61.2890   -21.5160    30.4580 h1         1 NO8       0.037700
     53 H4          62.5050   -20.7380    29.4420 h1         1 NO8       0.037700
     54 H5          54.7110   -15.5350    30.5270 hc         1 NO8       0.061367
     55 H6          55.9380   -15.0840    29.3300 hc         1 NO8       0.061367
     56 H7          54.8230   -16.4010    28.9930 hc         1 NO8       0.061367
     57 H8          57.5580   -16.6920    28.7980 hn         1 NO8       0.319500
     58 H9          59.9870   -17.2690    28.7940 h1         1 NO8       0.045700
     59 H11         68.6510   -25.9510    24.4620 hc         1 NO8       0.044033
     60 H12         67.0760   -26.1140    25.2330 hc         1 NO8       0.044033
     61 H13         67.8890   -24.0420    23.1400 h1         1 NO8       0.092700
     62 H14         67.6440   -22.4990    24.9920 hn         1 NO8       0.353300
     63 H15         67.5620   -23.7520    26.0270 hn         1 NO8       0.353300
     64 H18         65.3340   -23.2090    26.5360 h1         1 NO8       0.048700
     65 H19         63.4340   -25.5700    26.2500 hc         1 NO8       0.053200
     66 H20         63.4050   -24.3080    27.4830 hc         1 NO8       0.053200
     67 H21         62.6950   -22.6360    25.8740 hc         1 NO8       0.074200
     68 H22         61.7480   -24.0300    25.3600 hc         1 NO8       0.074200
     69 H23         63.1970   -24.5160    23.5450 h1         1 NO8       0.066700
     70 H24         61.8840   -23.1760    22.3700 hn         1 NO8       0.321500
     71 H25         61.2720   -21.3400    21.1550 h1         1 NO8       0.073700
     72 H26         62.7950   -20.5510    21.5040 h1         1 NO8       0.073700
     73 H27         61.3690   -18.6480    21.7720 hn         1 NO8       0.325500
     74 H28         61.0180   -18.0560    24.5190 h1         1 NO8       0.071700
     75 H29         59.8800   -16.6810    22.0470 h1         1 NO8       0.050200
     76 H30         61.4480   -16.3740    22.7900 h1         1 NO8       0.050200
     77 H31         58.9190   -15.6260    23.7420 ho         1 NO8       0.452000
     78 H32         59.4550   -18.5560    25.8700 hn         1 NO8       0.335500
     79 H33         56.8060   -19.3950    24.9240 h1         1 NO8       0.114700
     80 H34         56.3980   -19.8280    27.3290 h1         1 NO8       0.058700
     81 H35         57.9240   -21.7610    27.5320 hc         1 NO8       0.057700
     82 H36         57.3360   -21.6040    25.8830 hc         1 NO8       0.057700
     83 H37         58.9830   -21.1050    26.2820 hc         1 NO8       0.057700
     84 H38         57.2850   -19.8740    29.4650 h2         1 NO8       0.089700
     85 H39         61.7120   -22.8740    28.6980 ho         1 NO8       0.401000
     86 H40         60.9300   -18.3210    31.9670 ho         1 NO8       0.419000
     87 H41         60.8280   -16.0390    30.4560 ho         1 NO8       0.406000
     88 H42         58.3160   -18.4120    31.0760 h1         1 NO8       0.118700
     89 H43         58.3170   -16.5170    25.8790 hn         1 NO8       0.330500
     90 H44         55.8290   -15.1690    26.6690 h1         1 NO8       0.083700
     91 H45         57.9090   -14.4240    27.7690 hc         1 NO8       0.055367
     92 H46         58.6610   -14.1090    26.2010 hc         1 NO8       0.055367
     93 H47         57.2940   -13.1350    26.7380 hc         1 NO8       0.055367
     94 H48         54.2670   -13.9020    26.1180 h1         1 NO8       0.054700
     95 H49         55.1780   -12.3880    26.0360 h1         1 NO8       0.054700
     96 H50         53.0620   -11.7210    25.0740 hc         1 NO8       0.060200
     97 H51         52.8570   -13.2820    24.2780 hc         1 NO8       0.060200
     98 H52         54.8640   -11.0960    23.5800 hc         1 NO8       0.062200
     99 H53         53.7590   -11.8990    22.4650 hc         1 NO8       0.062200
    100 H54         55.0510   -13.8980    22.4310 h1         1 NO8       0.074700
    101 H55         57.6910   -12.1090    20.9020 hn         1 NO8       0.316000
    102 H56         56.2130   -12.9660    20.7080 hn         1 NO8       0.316000
    103 CAY         56.5970   -17.5720    25.9730 c          1 NO8       0.660100
    104 C7          56.3420   -16.9240    30.4060 c          1 NO8       0.674100
    105 OAZ         55.3830   -17.6000    26.0870 o          1 NO8      -0.606100
    106 CAS         58.9950   -18.5000    23.8920 c          1 NO8       0.663100
    107 NBD         57.3340   -16.4550    26.0990 ns         1 NO8      -0.550900
    108 CAO         61.2740   -20.2710    23.0110 c          1 NO8       0.648100
    109 H17         65.7350   -24.9160    26.2990 h1         1 NO8       0.048700
    110 C           65.8790   -24.0550    23.6540 c          1 NO8       0.635100
    111 H10         67.2380   -26.3870    23.4990 hc         1 NO8       0.044033
@<TRIPOS>BOND
     1     1     2 1   
     2     1     6 1   
     3     1    34 1   
     4     1    50 1   
     5     2     3 1   
     6     2    32 1   
     7     2    51 1   
     8     3    33 1   
     9     3    52 1   
    10     3    53 1   
    11     4    54 1   
    12     4    55 1   
    13     4    56 1   
    14     4   104 1   
    15     5    36 1   
    16     5    57 1   
    17     5   104 1   
    18     6    35 1   
    19     6    36 1   
    20     6    58 1   
    21     7     8 1   
    22     7    59 1   
    23     7    60 1   
    24     7   111 1   
    25     8     9 1   
    26     8    61 1   
    27     8   110 1   
    28     9    62 1   
    29     9    63 1   
    30    10   110 2   
    31    11    12 1   
    32    11    15 1   
    33    11   110 1   
    34    12    13 1   
    35    12    64 1   
    36    12   109 1   
    37    13    14 1   
    38    13    65 1   
    39    13    66 1   
    40    14    15 1   
    41    14    67 1   
    42    14    68 1   
    43    15    16 1   
    44    15    69 1   
    45    16    17 2   
    46    16    18 1   
    47    18    19 1   
    48    18    70 1   
    49    19    71 1   
    50    19    72 1   
    51    19   108 1   
    52    20   108 2   
    53    21    22 1   
    54    21    73 1   
    55    21   108 1   
    56    22    23 1   
    57    22    74 1   
    58    22   106 1   
    59    23    24 1   
    60    23    75 1   
    61    23    76 1   
    62    24    77 1   
    63    25   106 2   
    64    26    27 1   
    65    26    78 1   
    66    26   106 1   
    67    27    28 1   
    68    27    79 1   
    69    27   103 1   
    70    28    29 1   
    71    28    30 1   
    72    28    80 1   
    73    29    81 1   
    74    29    82 1   
    75    29    83 1   
    76    30    31 1   
    77    31    32 1   
    78    31    36 1   
    79    31    84 1   
    80    33    85 1   
    81    34    86 1   
    82    35    87 1   
    83    36    88 1   
    84    37   104 2   
    85    38    39 1   
    86    38    40 1   
    87    38    90 1   
    88    38   107 1   
    89    39    91 1   
    90    39    92 1   
    91    39    93 1   
    92    40    41 2   
    93    40    42 1   
    94    42    43 1   
    95    42    46 1   
    96    43    44 1   
    97    43    94 1   
    98    43    95 1   
    99    44    45 1   
   100    44    96 1   
   101    44    97 1   
   102    45    46 1   
   103    45    98 1   
   104    45    99 1   
   105    46    47 1   
   106    46   100 1   
   107    47    48 2   
   108    47    49 1   
   109    49   101 1   
   110    49   102 1   
   111    89   107 1   
   112   103   105 2   
   113   103   107 1   
@<TRIPOS>SUBSTRUCTURE
     1 NO8         1 TEMP              0 ****  ****    0 ROOT
