@<TRIPOS>MOLECULE
NO9
   22    22     1     0     0
SMALL
No Charge or Current Charge


@<TRIPOS>ATOM
      1 O4          -2.6560    -1.6270    -0.3160 o          1 NO9      -0.714000
      2 C5          -1.4530    -1.4200    -0.2870 c          1 NO9       0.743600
      3 O5          -0.6440    -2.3290    -0.4030 o          1 NO9      -0.714000
      4 C2          -0.9470    -0.0130    -0.1510 cc         1 NO9      -0.121600
      5 C4          -1.7320     1.1140    -0.0940 cd         1 NO9       0.132300
      6 C7          -3.2270     1.2930    -0.1470 c3         1 NO9      -0.111400
      7 O1          -0.9770     2.2500     0.0240 os         1 NO9      -0.270000
      8 C3           0.3220     1.8110     0.0540 cd         1 NO9       0.226300
      9 C6           1.3860     2.8620     0.2250 c3         1 NO9      -0.124400
     10 C1           0.4160     0.4450    -0.0540 cc         1 NO9      -0.374500
     11 S            1.9510    -0.4690    -0.0010 sy         1 NO9       1.178600
     12 O2           3.0910     0.4020    -0.2790 o          1 NO9      -0.573000
     13 O3           1.9270    -1.3890     1.1340 o          1 NO9      -0.573000
     14 N1           1.8000    -1.4300    -1.3040 n8         1 NO9      -0.991100
     15 H2          -3.7150     0.7770     0.6870 hc         1 NO9       0.048367
     16 H3          -3.5030     2.3530    -0.0880 hc         1 NO9       0.048367
     17 H4          -3.6370     0.8960    -1.0830 hc         1 NO9       0.048367
     18 H5           0.9430     3.8500     0.3980 hc         1 NO9       0.055033
     19 H6           2.0300     2.6360     1.0820 hc         1 NO9       0.055033
     20 H7           2.0150     2.9330    -0.6690 hc         1 NO9       0.055033
     21 H8           1.3400    -0.7990    -1.9520 hn         1 NO9       0.488000
     22 H9           0.9990    -1.9860    -0.9770 hn         1 NO9       0.488000
@<TRIPOS>BOND
     1     1     2 1   
     2     2     3 1   
     3     2     4 1   
     4     4     5 2   
     5     4    10 1   
     6     5     6 1   
     7     5     7 1   
     8     6    15 1   
     9     6    16 1   
    10     6    17 1   
    11     7     8 1   
    12     8     9 1   
    13     8    10 2   
    14     9    18 1   
    15     9    19 1   
    16     9    20 1   
    17    10    11 1   
    18    11    12 2   
    19    11    13 2   
    20    11    14 1   
    21    14    21 1   
    22    14    22 1   
@<TRIPOS>SUBSTRUCTURE
     1 NO9         1 TEMP              0 ****  ****    0 ROOT
