@<TRIPOS>MOLECULE
NO9
   22    22     1     0     0
SMALL
abcg2


@<TRIPOS>ATOM
      1 O4          -2.6530    -1.7050    -0.0080 o          1 NO9      -0.714000
      2 C5          -1.4760    -1.4600    -0.3130 c          1 NO9       0.743600
      3 O5          -0.6520    -2.2780    -0.7850 o          1 NO9      -0.714000
      4 C2          -0.9910    -0.0490    -0.1110 cc         1 NO9      -0.121600
      5 C4          -1.7590     1.0690    -0.0330 cd         1 NO9       0.132300
      6 C7          -3.2160     1.3310    -0.0870 c3         1 NO9      -0.111400
      7 O1          -0.9670     2.1620     0.1030 os         1 NO9      -0.270000
      8 C3           0.3220     1.7840     0.1180 cd         1 NO9       0.226300
      9 C6           1.3310     2.8620     0.2700 c3         1 NO9      -0.124400
     10 C1           0.3670     0.4320    -0.0190 cc         1 NO9      -0.374500
     11 S            1.8330    -0.5200     0.0070 sy         1 NO9       1.178600
     12 O2           2.9620     0.4010    -0.0030 o          1 NO9      -0.573000
     13 O3           1.7330    -1.4840     1.0900 o          1 NO9      -0.573000
     14 N1           1.8820    -1.3740    -1.3940 n8         1 NO9      -0.991100
     15 H2          -3.5960     1.6610     0.8820 hc         1 NO9       0.048367
     16 H3          -3.4480     2.1090    -0.8160 hc         1 NO9       0.048367
     17 H4          -3.7420     0.4230    -0.3610 hc         1 NO9       0.048367
     18 H5           0.8340     3.8270     0.3510 hc         1 NO9       0.055033
     19 H6           1.9410     2.7180     1.1610 hc         1 NO9       0.055033
     20 H7           2.0050     2.8980    -0.5840 hc         1 NO9       0.055033
     21 H8           2.0300    -0.7690    -2.1960 hn         1 NO9       0.488000
     22 H9           0.9880    -1.8810    -1.4710 hn         1 NO9       0.488000
@<TRIPOS>BOND
     1     1     2 1   
     2     2     3 1   
     3     2     4 1   
     4     4     5 2   
     5     4    10 1   
     6     5     6 1   
     7     5     7 1   
     8     6    15 1   
     9     6    16 1   
    10     6    17 1   
    11     7     8 1   
    12     8     9 1   
    13     8    10 2   
    14     9    18 1   
    15     9    19 1   
    16     9    20 1   
    17    10    11 1   
    18    11    12 2   
    19    11    13 2   
    20    11    14 1   
    21    14    21 1   
    22    14    22 1   
@<TRIPOS>SUBSTRUCTURE
     1 NO9         1 TEMP              0 ****  ****    0 ROOT
