@<TRIPOS>MOLECULE
NOA
   24    25     1     0     0
SMALL
bcc


@<TRIPOS>ATOM
      1 C            0.6940     0.0210     3.4990 c          1 NOA       0.939600
      2 CA          -0.3870     0.0180     2.4070 c3         1 NOA      -0.020600
      3 C1          -0.5820     0.0090     0.0420 ca         1 NOA       0.196100
      4 C2          -1.9570     0.0120     0.0660 ca         1 NOA      -0.276000
      5 C3          -2.6850     0.0110    -1.1430 ca         1 NOA      -0.069000
      6 C4          -2.0550     0.0070    -2.3540 ca         1 NOA      -0.206000
      7 C4A         -0.6400     0.0040    -2.4110 ca         1 NOA       0.002000
      8 C5           0.0500     0.0010    -3.6460 ca         1 NOA      -0.151000
      9 C6           1.4180    -0.0020    -3.6870 ca         1 NOA      -0.120000
     10 C7           2.1610    -0.0010    -2.4900 ca         1 NOA      -0.176000
     11 C8           1.5230     0.0030    -1.2780 ca         1 NOA      -0.061000
     12 C1A          0.1110     0.0050    -1.2090 ca         1 NOA      -0.075000
     13 O            1.8830     0.0270     3.1510 o          1 NOA      -0.817800
     14 OXT          0.2300     0.0190     4.6560 o          1 NOA      -0.817800
     15 O1           0.2050     0.0100     1.1230 os         1 NOA      -0.270900
     16 HA1         -1.0320    -0.8600     2.5360 h1         1 NOA       0.019700
     17 HA2         -1.0260     0.9020     2.5280 h1         1 NOA       0.019700
     18 H2          -2.5030     0.0160     0.9990 ha         1 NOA       0.140000
     19 H3          -3.7660     0.0140    -1.0940 ha         1 NOA       0.110000
     20 H4          -2.6260     0.0050    -3.2740 ha         1 NOA       0.115000
     21 H5          -0.5250     0.0000    -4.5640 ha         1 NOA       0.115000
     22 H6           1.9330    -0.0040    -4.6390 ha         1 NOA       0.112000
     23 H7           3.2430    -0.0040    -2.5300 ha         1 NOA       0.121000
     24 H8           2.1060     0.0060    -0.3660 ha         1 NOA       0.170000
@<TRIPOS>BOND
     1     1     2 1   
     2     1    13 1   
     3     1    14 1   
     4     2    15 1   
     5     2    16 1   
     6     2    17 1   
     7     3     4 ar  
     8     3    12 ar  
     9     3    15 1   
    10     4     5 ar  
    11     4    18 1   
    12     5     6 ar  
    13     5    19 1   
    14     6     7 ar  
    15     6    20 1   
    16     7     8 ar  
    17     7    12 ar  
    18     8     9 ar  
    19     8    21 1   
    20     9    10 ar  
    21     9    22 1   
    22    10    11 ar  
    23    10    23 1   
    24    11    12 ar  
    25    11    24 1   
@<TRIPOS>SUBSTRUCTURE
     1 NOA         1 TEMP              0 ****  ****    0 ROOT
