@<TRIPOS>MOLECULE
NOA
   24    25     1     0     0
SMALL
No Charge or Current Charge


@<TRIPOS>ATOM
      1 C            0.6570     0.0200     3.6340 c          1 NOA       0.729000
      2 CA          -0.3930     0.0190     2.4840 c3         1 NOA       0.002600
      3 C1          -0.5470     0.0110     0.0040 ca         1 NOA       0.196100
      4 C2          -1.9600     0.0140     0.0380 ca         1 NOA      -0.258000
      5 C3          -2.6990     0.0110    -1.1550 ca         1 NOA      -0.051000
      6 C4          -2.0370     0.0060    -2.3910 ca         1 NOA      -0.188000
      7 C4A         -0.6330     0.0040    -2.4430 ca         1 NOA       0.002000
      8 C5           0.0210    -0.0000    -3.6890 ca         1 NOA      -0.133000
      9 C6           1.4230    -0.0030    -3.7530 ca         1 NOA      -0.102000
     10 C7           2.1770    -0.0000    -2.5690 ca         1 NOA      -0.158000
     11 C8           1.5320     0.0040    -1.3190 ca         1 NOA      -0.043000
     12 C1A          0.1210     0.0070    -1.2450 ca         1 NOA      -0.075000
     13 O            1.8530     0.0180     3.3620 o          1 NOA      -0.712500
     14 OXT          0.2370     0.0240     4.7840 o          1 NOA      -0.712500
     15 O1           0.2060     0.0140     1.1650 os         1 NOA      -0.294100
     16 HA1         -1.0250    -0.8690     2.6150 h1         1 NOA       0.019700
     17 HA2         -1.0220     0.9090     2.6100 h1         1 NOA       0.019700
     18 H2          -2.5000     0.0170     0.9800 ha         1 NOA       0.122000
     19 H3          -3.7870     0.0130    -1.1210 ha         1 NOA       0.092000
     20 H4          -2.6190     0.0040    -3.3090 ha         1 NOA       0.097000
     21 H5          -0.5580    -0.0020    -4.6100 ha         1 NOA       0.097000
     22 H6           1.9250    -0.0060    -4.7180 ha         1 NOA       0.094000
     23 H7           3.2640    -0.0020    -2.6180 ha         1 NOA       0.103000
     24 H8           2.1360     0.0060    -0.4140 ha         1 NOA       0.152000
@<TRIPOS>BOND
     1     1     2 1   
     2     1    13 1   
     3     1    14 1   
     4     2    15 1   
     5     2    16 1   
     6     2    17 1   
     7     3     4 ar  
     8     3    12 ar  
     9     3    15 1   
    10     4     5 ar  
    11     4    18 1   
    12     5     6 ar  
    13     5    19 1   
    14     6     7 ar  
    15     6    20 1   
    16     7     8 ar  
    17     7    12 ar  
    18     8     9 ar  
    19     8    21 1   
    20     9    10 ar  
    21     9    22 1   
    22    10    11 ar  
    23    10    23 1   
    24    11    12 ar  
    25    11    24 1   
@<TRIPOS>SUBSTRUCTURE
     1 NOA         1 TEMP              0 ****  ****    0 ROOT
