@<TRIPOS>MOLECULE
NOC
   34    36     1     0     0
SMALL
abcg2


@<TRIPOS>ATOM
      1 C6          -3.9890     1.4850     0.8460 c3         1 NOC       0.173600
      2 O6          -5.3120     1.1450     0.5080 oh         1 NOC      -0.646000
      3 C5          -1.6330     0.6090     1.0930 c5         1 NOC      -0.093400
      4 C4          -3.0950     0.2670     0.7230 c5         1 NOC      -0.065700
      5 C3          -3.0180    -0.3370    -0.6830 c5         1 NOC       0.149300
      6 O3          -4.0680    -1.2400    -0.9130 oh         1 NOC      -0.637000
      7 C2          -1.6290    -0.9780    -0.7120 c5         1 NOC       0.114300
      8 O2          -1.1460    -1.3210    -1.9810 oh         1 NOC      -0.641000
      9 C1          -0.7820     0.1160    -0.0840 c5         1 NOC       0.083300
     10 N9           0.5570    -0.3000     0.2690 na         1 NOC      -0.265300
     11 C8           0.9170    -1.3490     1.0680 cc         1 NOC       0.396700
     12 N7           2.2050    -1.4770     1.2110 nd         1 NOC      -0.551100
     13 C9           2.7290    -0.4540     0.4670 ca         1 NOC      -0.102600
     14 C7           4.0470    -0.0320     0.2120 ca         1 NOC       0.452900
     15 N6           5.1130    -0.6520     0.7210 nv         1 NOC      -1.066900
     16 N1           4.2230     1.0370    -0.5720 nb         1 NOC      -0.304000
     17 C11          3.1560     1.6530    -1.0760 ca         1 NOC       0.183900
     18 N3           1.8800     1.3550    -0.9100 nb         1 NOC      -0.221000
     19 C10          1.7200     0.2890    -0.1280 ca         1 NOC       0.133500
     20 H6'1        -3.9220     1.8640     1.8750 h1         1 NOC       0.018700
     21 H6'2        -3.5950     2.2790     0.1930 h1         1 NOC       0.018700
     22 HO6         -5.8640     1.9210     0.6440 ho         1 NOC       0.443000
     23 H5'1        -1.3410     0.1070     2.0170 hc         1 NOC       0.061200
     24 H5'2        -1.4840     1.6780     1.2570 hc         1 NOC       0.061200
     25 HC4         -3.4620    -0.5110     1.4010 hc         1 NOC       0.080700
     26 HC3         -3.0250     0.4750    -1.4290 h1         1 NOC       0.049700
     27 HO3         -4.0590    -1.4910    -1.8410 ho         1 NOC       0.445000
     28 HC2         -1.6490    -1.8520    -0.0440 h1         1 NOC       0.045700
     29 HO2         -1.4610    -2.2000    -2.2090 ho         1 NOC       0.450000
     30 HC1         -0.6600     0.9180    -0.8160 h1         1 NOC       0.109700
     31 HC8          0.1810    -1.9930     1.5250 h5         1 NOC       0.063800
     32 HN61         6.0390    -0.3150     0.5250 hn         1 NOC       0.507000
     33 HN62         5.0130    -1.4590     1.3110 hn         1 NOC       0.507000
     34 H1           3.3690     2.5130    -1.7020 h5         1 NOC       0.045100
@<TRIPOS>BOND
     1     1     2 1   
     2     1     4 1   
     3     1    20 1   
     4     1    21 1   
     5     2    22 1   
     6     3     4 1   
     7     3     9 1   
     8     3    23 1   
     9     3    24 1   
    10     4     5 1   
    11     4    25 1   
    12     5     6 1   
    13     5     7 1   
    14     5    26 1   
    15     6    27 1   
    16     7     8 1   
    17     7     9 1   
    18     7    28 1   
    19     8    29 1   
    20     9    10 1   
    21     9    30 1   
    22    10    11 1   
    23    10    19 1   
    24    11    12 2   
    25    11    31 1   
    26    12    13 1   
    27    13    14 ar  
    28    13    19 ar  
    29    14    15 1   
    30    14    16 ar  
    31    15    32 1   
    32    15    33 1   
    33    16    17 ar  
    34    17    18 ar  
    35    17    34 1   
    36    18    19 ar  
@<TRIPOS>SUBSTRUCTURE
     1 NOC         1 TEMP              0 ****  ****    0 ROOT
