@<TRIPOS>MOLECULE
NOC
   34    36     1     0     0
SMALL
No Charge or Current Charge


@<TRIPOS>ATOM
      1 C6          -3.8980     1.6080     0.5760 c3         1 NOC       0.173600
      2 O6          -5.2260     1.0770     0.6840 oh         1 NOC      -0.646000
      3 C5          -1.3800     0.9030     0.3520 c5         1 NOC      -0.093400
      4 C4          -2.8720     0.4520     0.5090 c5         1 NOC      -0.065700
      5 C3          -3.0520    -0.5090    -0.6910 c5         1 NOC       0.149300
      6 O3          -4.2390    -1.2900    -0.5700 oh         1 NOC      -0.637000
      7 C2          -1.7530    -1.3480    -0.5350 c5         1 NOC       0.114300
      8 O2          -1.5760    -2.2830    -1.6050 oh         1 NOC      -0.641000
      9 C1          -0.6950    -0.1990    -0.5350 c5         1 NOC       0.083300
     10 N9           0.6680    -0.5550    -0.1110 na         1 NOC      -0.265300
     11 C8           1.1060    -1.8170     0.3170 cc         1 NOC       0.396700
     12 N7           2.4170    -1.8080     0.6230 nd         1 NOC      -0.551100
     13 C9           2.7980    -0.4890     0.3620 ca         1 NOC      -0.102600
     14 C7           4.0620     0.1240     0.4940 ca         1 NOC       0.452900
     15 N6           5.1610    -0.5470     0.9300 nv         1 NOC      -1.066900
     16 N1           4.2400     1.4210     0.1980 nb         1 NOC      -0.304000
     17 C11          3.1430     2.0890    -0.2350 ca         1 NOC       0.183900
     18 N3           1.8960     1.5830    -0.3940 nb         1 NOC      -0.221000
     19 C10          1.7520     0.2790    -0.0840 ca         1 NOC       0.133500
     20 H6'1        -3.6680     2.2400     1.4440 h1         1 NOC       0.018700
     21 H6'2        -3.8070     2.2250    -0.3270 h1         1 NOC       0.018700
     22 HO6         -5.8280     1.8440     0.8180 ho         1 NOC       0.443000
     23 H5'1        -0.9010     0.9960     1.3340 hc         1 NOC       0.061200
     24 H5'2        -1.2940     1.8850    -0.1290 hc         1 NOC       0.061200
     25 HC4         -2.9840    -0.1010     1.4510 hc         1 NOC       0.080700
     26 HC3         -3.0580     0.0460    -1.6410 h1         1 NOC       0.049700
     27 HO3         -4.8950    -0.6760    -0.1560 ho         1 NOC       0.445000
     28 HC2         -1.7560    -1.8790     0.4290 h1         1 NOC       0.045700
     29 HO2         -2.4500    -2.7170    -1.7290 ho         1 NOC       0.450000
     30 HC1         -0.6250     0.1860    -1.5620 h1         1 NOC       0.109700
     31 HC8          0.4460    -2.6740     0.3850 h5         1 NOC       0.063800
     32 HN61         5.9430    -0.0020     1.2830 hn         1 NOC       0.507000
     33 HN62         5.0050    -1.4540     1.3640 hn         1 NOC       0.507000
     34 H1           3.2770     3.1410    -0.4800 h5         1 NOC       0.045100
@<TRIPOS>BOND
     1     1     2 1   
     2     1     4 1   
     3     1    20 1   
     4     1    21 1   
     5     2    22 1   
     6     3     4 1   
     7     3     9 1   
     8     3    23 1   
     9     3    24 1   
    10     4     5 1   
    11     4    25 1   
    12     5     6 1   
    13     5     7 1   
    14     5    26 1   
    15     6    27 1   
    16     7     8 1   
    17     7     9 1   
    18     7    28 1   
    19     8    29 1   
    20     9    10 1   
    21     9    30 1   
    22    10    11 1   
    23    10    19 1   
    24    11    12 2   
    25    11    31 1   
    26    12    13 1   
    27    13    14 ar  
    28    13    19 ar  
    29    14    15 1   
    30    14    16 ar  
    31    15    32 1   
    32    15    33 1   
    33    16    17 ar  
    34    17    18 ar  
    35    17    34 1   
    36    18    19 ar  
@<TRIPOS>SUBSTRUCTURE
     1 NOC         1 TEMP              0 ****  ****    0 ROOT
