@<TRIPOS>MOLECULE
NOE
    9     8     1     0     0
SMALL
abcg2


@<TRIPOS>ATOM
      1 C1           0.6320     0.0990     0.5470 c3         1 NOE      -0.038200
      2 C2          -0.3400     0.1110     1.7180 c3         1 NOE      -0.080100
      3 N           -0.0390    -0.4740    -0.6190 n2         1 NOE       0.002100
      4 O1          -0.0730     0.2370    -1.5790 o          1 NOE      -0.165300
      5 HC11         1.0330     1.0910     0.3260 h1         1 NOE       0.071700
      6 HC12         1.4580    -0.5840     0.7660 h1         1 NOE       0.071700
      7 HC21         0.1800     0.4420     2.6150 hc         1 NOE       0.046033
      8 HC22        -1.1690     0.7950     1.5360 hc         1 NOE       0.046033
      9 HC23        -0.7460    -0.8820     1.9080 hc         1 NOE       0.046033
@<TRIPOS>BOND
     1     1     2 1   
     2     1     3 1   
     3     1     5 1   
     4     1     6 1   
     5     2     7 1   
     6     2     8 1   
     7     2     9 1   
     8     3     4 2   
@<TRIPOS>SUBSTRUCTURE
     1 NOE         1 TEMP              0 ****  ****    0 ROOT
