@<TRIPOS>MOLECULE
NOE
    9     8     1     0     0
SMALL
No Charge or Current Charge


@<TRIPOS>ATOM
      1 C1           0.5230     0.1780     0.5010 c3         1 NOE      -0.038200
      2 C2          -0.3270     0.0840     1.7830 c3         1 NOE      -0.080100
      3 N           -0.2780    -0.1880    -0.6650 n2         1 NOE       0.002100
      4 O1           0.3400    -0.1330    -1.7150 o          1 NOE      -0.165300
      5 HC11         0.9020     1.2030     0.3980 h1         1 NOE       0.071700
      6 HC12         1.3880    -0.4910     0.5950 h1         1 NOE       0.071700
      7 HC21         0.2740     0.3580     2.6590 hc         1 NOE       0.046033
      8 HC22        -1.1860     0.7630     1.7320 hc         1 NOE       0.046033
      9 HC23        -0.6990    -0.9380     1.9300 hc         1 NOE       0.046033
@<TRIPOS>BOND
     1     1     2 1   
     2     1     3 1   
     3     1     5 1   
     4     1     6 1   
     5     2     7 1   
     6     2     8 1   
     7     2     9 1   
     8     3     4 2   
@<TRIPOS>SUBSTRUCTURE
     1 NOE         1 TEMP              0 ****  ****    0 ROOT
