@<TRIPOS>MOLECULE
NOG
   51    54     1     0     0
SMALL
abcg2


@<TRIPOS>ATOM
      1 C1           1.6090     0.1630     2.9690 c6         1 NOG      -0.066400
      2 C2           1.5470    -0.0540     4.4730 c6         1 NOG      -0.181400
      3 C3           0.2780     0.5040     5.0550 c          1 NOG       0.575300
      4 C4          -0.9130     0.3670     4.2210 ce         1 NOG      -0.319200
      5 C5          -0.8840    -0.1160     2.9670 c2         1 NOG      -0.034400
      6 C6          -2.1570    -0.4260     2.2450 c6         1 NOG      -0.052200
      7 C7          -2.1700     0.0930     0.8120 c6         1 NOG      -0.069400
      8 C8          -0.9370    -0.3820     0.0580 c6         1 NOG      -0.045700
      9 C9           0.3370     0.0840     0.7770 c6         1 NOG      -0.052700
     10 C10          0.3990    -0.4160     2.2360 c6         1 NOG      -0.032500
     11 C11          1.5930    -0.3030    -0.0080 c6         1 NOG      -0.072400
     12 C12          1.5660     0.1900    -1.4570 c6         1 NOG      -0.059400
     13 C13          0.3200    -0.3060    -2.1830 c5         1 NOG      -0.017000
     14 C14         -0.9100     0.1390    -1.3700 c5         1 NOG      -0.069700
     15 C15         -2.0960    -0.1530    -2.2880 c5         1 NOG      -0.064400
     16 C16         -1.5400     0.0840    -3.7060 c5         1 NOG      -0.105400
     17 C17         -0.0190     0.3750    -3.5400 c5         1 NOG       0.269100
     18 C18          0.3480    -1.8430    -2.3730 c3         1 NOG      -0.055400
     19 C19          1.6840    -2.4590    -2.7780 c3         1 NOG      -0.086100
     20 C20          0.1900     1.8330    -3.4780 c1         1 NOG      -0.174100
     21 C21          0.3500     3.0250    -3.4870 c1         1 NOG      -0.230000
     22 O3           0.2250     0.9830     6.1760 o          1 NOG      -0.529100
     23 O17          0.7710    -0.1430    -4.5830 oh         1 NOG      -0.639000
     24 HC11         1.6690     1.2370     2.7610 hc         1 NOG       0.049200
     25 HC12         2.5290    -0.2780     2.5860 hc         1 NOG       0.049200
     26 HC21         2.4110     0.3860     4.9730 hc         1 NOG       0.069200
     27 HC22         1.5630    -1.1280     4.6940 hc         1 NOG       0.069200
     28 HC4         -1.8650     0.6080     4.6840 ha         1 NOG       0.195000
     29 HC61        -3.0130    -0.0500     2.8070 hc         1 NOG       0.053700
     30 HC62        -2.2600    -1.5180     2.2180 hc         1 NOG       0.053700
     31 HC71        -2.2090     1.1880     0.8100 hc         1 NOG       0.046200
     32 HC72        -3.0800    -0.2550     0.3180 hc         1 NOG       0.046200
     33 HC8         -0.9570    -1.4800     0.0600 hc         1 NOG       0.051700
     34 HC9          0.2950     1.1830     0.8170 hc         1 NOG       0.051700
     35 H10C         0.4950    -1.5130     2.2070 hc         1 NOG       0.060700
     36 H111         1.7150    -1.3920     0.0290 hc         1 NOG       0.041200
     37 H112         2.4800     0.1140     0.4730 hc         1 NOG       0.041200
     38 H121         2.4830    -0.1160    -1.9660 hc         1 NOG       0.051700
     39 H122         1.5720     1.2840    -1.4520 hc         1 NOG       0.051700
     40 H14C        -0.8380     1.2320    -1.2800 hc         1 NOG       0.055700
     41 H151        -2.4350    -1.1860    -2.1720 hc         1 NOG       0.045700
     42 H152        -2.9500     0.4870    -2.0680 hc         1 NOG       0.045700
     43 H161        -1.6570    -0.8000    -4.3350 hc         1 NOG       0.052700
     44 H162        -2.0450     0.9030    -4.2190 hc         1 NOG       0.052700
     45 H181        -0.4070    -2.1430    -3.1020 hc         1 NOG       0.035700
     46 H182         0.0370    -2.3200    -1.4420 hc         1 NOG       0.035700
     47 H191         1.5600    -3.5310    -2.9380 hc         1 NOG       0.034700
     48 H192         2.0760    -2.0310    -3.6970 hc         1 NOG       0.034700
     49 H193         2.4410    -2.3380    -2.0040 hc         1 NOG       0.034700
     50 H21C         0.4970     4.0810    -3.4870 ha         1 NOG       0.255000
     51 H17O         0.4540     0.2170    -5.4170 ho         1 NOG       0.448000
@<TRIPOS>BOND
     1     1     2 1   
     2     1    10 1   
     3     1    24 1   
     4     1    25 1   
     5     2     3 1   
     6     2    26 1   
     7     2    27 1   
     8     3     4 1   
     9     3    22 2   
    10     4     5 2   
    11     4    28 1   
    12     5     6 1   
    13     5    10 1   
    14     6     7 1   
    15     6    29 1   
    16     6    30 1   
    17     7     8 1   
    18     7    31 1   
    19     7    32 1   
    20     8     9 1   
    21     8    14 1   
    22     8    33 1   
    23     9    10 1   
    24     9    11 1   
    25     9    34 1   
    26    10    35 1   
    27    11    12 1   
    28    11    36 1   
    29    11    37 1   
    30    12    13 1   
    31    12    38 1   
    32    12    39 1   
    33    13    14 1   
    34    13    17 1   
    35    13    18 1   
    36    14    15 1   
    37    14    40 1   
    38    15    16 1   
    39    15    41 1   
    40    15    42 1   
    41    16    17 1   
    42    16    43 1   
    43    16    44 1   
    44    17    20 1   
    45    17    23 1   
    46    18    19 1   
    47    18    45 1   
    48    18    46 1   
    49    19    47 1   
    50    19    48 1   
    51    19    49 1   
    52    20    21 3   
    53    21    50 1   
    54    23    51 1   
@<TRIPOS>SUBSTRUCTURE
     1 NOG         1 TEMP              0 ****  ****    0 ROOT
