@<TRIPOS>MOLECULE
NOG
   51    54     1     0     0
SMALL
No Charge or Current Charge


@<TRIPOS>ATOM
      1 C1           1.6400     0.1390     3.0580 c6         1 NOG      -0.066400
      2 C2           1.5450    -0.0910     4.5810 c6         1 NOG      -0.181400
      3 C3           0.2710     0.5320     5.1470 c          1 NOG       0.575300
      4 C4          -0.9480     0.3090     4.3370 ce         1 NOG      -0.319200
      5 C5          -0.9200    -0.1000     3.0460 c2         1 NOG      -0.034400
      6 C6          -2.2150    -0.3700     2.2880 c6         1 NOG      -0.052200
      7 C7          -2.1880     0.1800     0.8490 c6         1 NOG      -0.069400
      8 C8          -0.9500    -0.3490     0.0840 c6         1 NOG      -0.045700
      9 C9           0.3600     0.1060     0.8140 c6         1 NOG      -0.052700
     10 C10          0.3920    -0.4140     2.2950 c6         1 NOG      -0.032500
     11 C11          1.6370    -0.3080     0.0020 c6         1 NOG      -0.072400
     12 C12          1.5870     0.1900    -1.4720 c6         1 NOG      -0.059400
     13 C13          0.3140    -0.3340    -2.2200 c5         1 NOG      -0.017000
     14 C14         -0.9320     0.1450    -1.3940 c5         1 NOG      -0.069700
     15 C15         -2.1190    -0.2500    -2.3180 c5         1 NOG      -0.064400
     16 C16         -1.5730     0.0250    -3.7640 c5         1 NOG      -0.105400
     17 C17         -0.0510     0.3920    -3.5950 c5         1 NOG       0.269100
     18 C18          0.4080    -1.9200    -2.3560 c3         1 NOG      -0.055400
     19 C19          1.7070    -2.5340    -2.9390 c3         1 NOG      -0.086100
     20 C20          0.1490     1.8640    -3.6180 c1         1 NOG      -0.174100
     21 C21          0.3020     3.0640    -3.6860 c1         1 NOG      -0.230000
     22 O3           0.2550     1.1400     6.2080 o          1 NOG      -0.529100
     23 O17          0.7040    -0.0660    -4.7040 oh         1 NOG      -0.639000
     24 HC11         1.7450     1.2170     2.8680 hc         1 NOG       0.049200
     25 HC12         2.5570    -0.3360     2.6850 hc         1 NOG       0.049200
     26 HC21         2.4270     0.2630     5.1320 hc         1 NOG       0.069200
     27 HC22         1.4520    -1.1750     4.7230 hc         1 NOG       0.069200
     28 HC4         -1.8860     0.5440     4.8350 ha         1 NOG       0.195000
     29 HC61        -3.0720     0.0600     2.8250 hc         1 NOG       0.053700
     30 HC62        -2.3880    -1.4550     2.2590 hc         1 NOG       0.053700
     31 HC71        -2.1780     1.2790     0.8730 hc         1 NOG       0.046200
     32 HC72        -3.1130    -0.1150     0.3360 hc         1 NOG       0.046200
     33 HC8         -1.0050    -1.4450     0.0970 hc         1 NOG       0.051700
     34 HC9          0.3460     1.2050     0.8540 hc         1 NOG       0.051700
     35 H10C         0.4800    -1.5100     2.2640 hc         1 NOG       0.060700
     36 H111         1.7750    -1.3960     0.0390 hc         1 NOG       0.041200
     37 H112         2.5340     0.1230     0.4640 hc         1 NOG       0.041200
     38 H121         2.5040    -0.0880    -2.0080 hc         1 NOG       0.051700
     39 H122         1.5930     1.2870    -1.4470 hc         1 NOG       0.051700
     40 H14C        -0.9260     1.2370    -1.2840 hc         1 NOG       0.055700
     41 H151        -2.4020    -1.3010    -2.1890 hc         1 NOG       0.045700
     42 H152        -3.0150     0.3440    -2.1050 hc         1 NOG       0.045700
     43 H161        -1.7020    -0.8660    -4.3900 hc         1 NOG       0.052700
     44 H162        -2.1370     0.8220    -4.2620 hc         1 NOG       0.052700
     45 H181        -0.4140    -2.2990    -2.9720 hc         1 NOG       0.035700
     46 H182         0.2610    -2.4000    -1.3840 hc         1 NOG       0.035700
     47 H191         1.5870    -3.6180    -3.0500 hc         1 NOG       0.034700
     48 H192         1.9540    -2.1280    -3.9250 hc         1 NOG       0.034700
     49 H193         2.5600    -2.3690    -2.2720 hc         1 NOG       0.034700
     50 H21C         0.4330     4.1270    -3.7320 ha         1 NOG       0.255000
     51 H17O         0.8070     0.7200    -5.2800 ho         1 NOG       0.448000
@<TRIPOS>BOND
     1     1     2 1   
     2     1    10 1   
     3     1    24 1   
     4     1    25 1   
     5     2     3 1   
     6     2    26 1   
     7     2    27 1   
     8     3     4 1   
     9     3    22 2   
    10     4     5 2   
    11     4    28 1   
    12     5     6 1   
    13     5    10 1   
    14     6     7 1   
    15     6    29 1   
    16     6    30 1   
    17     7     8 1   
    18     7    31 1   
    19     7    32 1   
    20     8     9 1   
    21     8    14 1   
    22     8    33 1   
    23     9    10 1   
    24     9    11 1   
    25     9    34 1   
    26    10    35 1   
    27    11    12 1   
    28    11    36 1   
    29    11    37 1   
    30    12    13 1   
    31    12    38 1   
    32    12    39 1   
    33    13    14 1   
    34    13    17 1   
    35    13    18 1   
    36    14    15 1   
    37    14    40 1   
    38    15    16 1   
    39    15    41 1   
    40    15    42 1   
    41    16    17 1   
    42    16    43 1   
    43    16    44 1   
    44    17    20 1   
    45    17    23 1   
    46    18    19 1   
    47    18    45 1   
    48    18    46 1   
    49    19    47 1   
    50    19    48 1   
    51    19    49 1   
    52    20    21 3   
    53    21    50 1   
    54    23    51 1   
@<TRIPOS>SUBSTRUCTURE
     1 NOG         1 TEMP              0 ****  ****    0 ROOT
