@<TRIPOS>MOLECULE
NOI
   29    30     1     0     0
SMALL
No Charge or Current Charge


@<TRIPOS>ATOM
      1 N1           6.9700     0.2090    16.9730 nc         1 NOI      -0.669000
      2 C4           8.6070    -0.0070    21.4660 c          1 NOI       0.597100
      3 C5           9.3490    -0.9640    22.4080 c3         1 NOI      -0.107100
      4 C6          10.8450    -0.6620    22.4180 ca         1 NOI      -0.065300
      5 C7          11.3610     0.3380    23.2660 ca         1 NOI      -0.087000
      6 C8          12.7380     0.6220    23.2750 ca         1 NOI      -0.099000
      7 C10         13.0990    -1.0900    21.5870 ca         1 NOI       0.126000
      8 Cl          14.1870    -1.9850    20.5340 cl         1 NOI      -0.212000
      9 C9          13.6080    -0.0930    22.4340 ca         1 NOI      -0.095000
     10 C11         11.7230    -1.3760    21.5780 ca         1 NOI      -0.091000
     11 O            8.3470     1.1400    21.7960 o          1 NOI      -0.564100
     12 N2           8.3130    -0.5440    20.2210 ns         1 NOI      -0.408100
     13 C3           7.6330    -0.0010    19.1270 cd         1 NOI      -0.088400
     14 N            6.7120     1.0400    19.0360 na         1 NOI      -0.172500
     15 C            6.0910     1.8220    20.1170 c3         1 NOI       0.060900
     16 C2           7.7420    -0.4960    17.8510 cc         1 NOI       0.244900
     17 C1           6.3580     1.1390    17.6960 cd         1 NOI       0.404400
     18 H1           8.9470    -0.8390    23.4200 hc         1 NOI       0.066200
     19 H2           9.1930    -2.0010    22.0870 hc         1 NOI       0.066200
     20 H3          10.6940     0.8990    23.9180 ha         1 NOI       0.117000
     21 H4          13.1290     1.3970    23.9320 ha         1 NOI       0.120000
     22 H5          14.6730     0.1250    22.4390 ha         1 NOI       0.131000
     23 H6          11.3450    -2.1510    20.9160 ha         1 NOI       0.128000
     24 H7           8.7280    -1.4610    20.0950 hn         1 NOI       0.327500
     25 H8           5.8810     1.1730    20.9750 h1         1 NOI       0.056700
     26 H9           6.7610     2.6360    20.4180 h1         1 NOI       0.056700
     27 H10          5.1460     2.2550    19.7650 h1         1 NOI       0.056700
     28 H11          8.3460    -1.3240    17.5030 h4         1 NOI       0.042100
     29 H12          5.6460     1.8750    17.3400 h5         1 NOI       0.056100
@<TRIPOS>BOND
     1     1    16 1   
     2     1    17 2   
     3     2     3 1   
     4     2    11 2   
     5     2    12 1   
     6     3     4 1   
     7     3    18 1   
     8     3    19 1   
     9     4     5 ar  
    10     4    10 ar  
    11     5     6 ar  
    12     5    20 1   
    13     6     9 ar  
    14     6    21 1   
    15     7     8 1   
    16     7     9 ar  
    17     7    10 ar  
    18     9    22 1   
    19    10    23 1   
    20    12    13 1   
    21    12    24 1   
    22    13    14 1   
    23    13    16 2   
    24    14    15 1   
    25    14    17 1   
    26    15    25 1   
    27    15    26 1   
    28    15    27 1   
    29    16    28 1   
    30    17    29 1   
@<TRIPOS>SUBSTRUCTURE
     1 NOI         1 TEMP              0 ****  ****    0 ROOT
