@<TRIPOS>MOLECULE
NOI
   29    30     1     0     0
SMALL
abcg2


@<TRIPOS>ATOM
      1 N1           6.5060     0.3550    16.9840 nc         1 NOI      -0.669000
      2 C4           9.0280    -0.1200    20.7660 c          1 NOI       0.597100
      3 C5           9.5410    -0.9050    21.9670 c3         1 NOI      -0.107100
      4 C6          10.9760    -0.5990    22.2950 ca         1 NOI      -0.065300
      5 C7          11.3060     0.3780    23.2330 ca         1 NOI      -0.087000
      6 C8          12.6360     0.6710    23.5100 ca         1 NOI      -0.099000
      7 C10         13.3190    -0.9780    21.9250 ca         1 NOI       0.126000
      8 CL          14.5950    -1.8470    21.0930 cl         1 NOI      -0.212000
      9 C9          13.6600    -0.0060    22.8560 ca         1 NOI      -0.095000
     10 C11         11.9980    -1.2830    21.6380 ca         1 NOI      -0.091000
     11 O            9.4560     0.9810    20.4510 o          1 NOI      -0.564100
     12 N2           8.0090    -0.7280    20.0950 ns         1 NOI      -0.408100
     13 C3           7.3590    -0.1500    19.0000 cd         1 NOI      -0.088400
     14 N            6.5340     0.9510    19.1220 na         1 NOI      -0.172500
     15 C            6.2420     1.6850    20.3420 c3         1 NOI       0.060900
     16 C2           7.3290    -0.5030    17.6760 cc         1 NOI       0.244900
     17 C1           6.0560     1.2140    17.8800 cd         1 NOI       0.404400
     18 H1           8.8960    -0.6350    22.8080 hc         1 NOI       0.066200
     19 H2           9.4040    -1.9720    21.7890 hc         1 NOI       0.066200
     20 H3          10.5160     0.9100    23.7480 ha         1 NOI       0.117000
     21 H4          12.8830     1.4300    24.2410 ha         1 NOI       0.120000
     22 H5          14.6980     0.2120    23.0660 ha         1 NOI       0.131000
     23 H6          11.7630    -2.0470    20.9080 ha         1 NOI       0.128000
     24 H7           7.7410    -1.6610    20.3710 hn         1 NOI       0.327500
     25 H8           5.9600     0.9890    21.1310 h1         1 NOI       0.056700
     26 H9           7.1140     2.2550    20.6590 h1         1 NOI       0.056700
     27 H10          5.4120     2.3610    20.1460 h1         1 NOI       0.056700
     28 H11          7.8460    -1.3210    17.2010 h4         1 NOI       0.042100
     29 H12          5.3890     2.0410    17.6920 h5         1 NOI       0.056100
@<TRIPOS>BOND
     1     1    16 1   
     2     1    17 2   
     3     2     3 1   
     4     2    11 2   
     5     2    12 1   
     6     3     4 1   
     7     3    18 1   
     8     3    19 1   
     9     4     5 ar  
    10     4    10 ar  
    11     5     6 ar  
    12     5    20 1   
    13     6     9 ar  
    14     6    21 1   
    15     7     8 1   
    16     7     9 ar  
    17     7    10 ar  
    18     9    22 1   
    19    10    23 1   
    20    12    13 1   
    21    12    24 1   
    22    13    14 1   
    23    13    16 2   
    24    14    15 1   
    25    14    17 1   
    26    15    25 1   
    27    15    26 1   
    28    15    27 1   
    29    16    28 1   
    30    17    29 1   
@<TRIPOS>SUBSTRUCTURE
     1 NOI         1 TEMP              0 ****  ****    0 ROOT
