@<TRIPOS>MOLECULE
NOJ
   24    24     1     0     0
SMALL
bcc


@<TRIPOS>ATOM
      1 C1          -0.5670    -1.7880    -0.2010 c6         1 NOJ       0.123800
      2 C2          -1.6390    -0.8010     0.2580 c6         1 NOJ       0.074100
      3 O2          -2.9120    -1.1080    -0.2710 oh         1 NOJ      -0.599800
      4 C3          -1.2710     0.5950    -0.2200 c6         1 NOJ       0.113100
      5 O3          -2.1550     1.5790     0.2690 oh         1 NOJ      -0.609800
      6 C4           0.1310     0.9780     0.2440 c6         1 NOJ       0.122100
      7 O4           0.5110     2.2260    -0.2870 oh         1 NOJ      -0.594800
      8 C5           1.1470    -0.0820    -0.2000 c6         1 NOJ       0.167500
      9 N5           0.7660    -1.4170     0.2270 n7         1 NOJ      -0.778200
     10 C6           2.5380     0.2590     0.3080 c3         1 NOJ       0.148400
     11 O6           3.4640    -0.6730    -0.2010 oh         1 NOJ      -0.581800
     12 H11         -0.7950    -2.7890     0.1730 h1         1 NOJ       0.064200
     13 H12         -0.5820    -1.8490    -1.2950 h1         1 NOJ       0.064200
     14 H2          -1.6660    -0.7990     1.3580 h1         1 NOJ       0.038700
     15 HO2         -3.2600    -1.8730     0.1980 ho         1 NOJ       0.411000
     16 H3          -1.2700     0.5870    -1.3230 h1         1 NOJ       0.058700
     17 HO3         -3.0290     1.4100    -0.0960 ho         1 NOJ       0.426000
     18 H4           0.1330     1.0080     1.3470 h1         1 NOJ       0.035700
     19 HO4         -0.1620     2.8720    -0.0470 ho         1 NOJ       0.425000
     20 H5           1.1710    -0.0800    -1.2990 h1         1 NOJ       0.087700
     21 HN5          0.8350    -1.4860     1.2370 hn         1 NOJ       0.353800
     22 H61          2.7890     1.2800     0.0020 h1         1 NOJ       0.025700
     23 H62          2.5240     0.2520     1.4090 h1         1 NOJ       0.025700
     24 HO6          4.3390    -0.4100     0.0980 ho         1 NOJ       0.400000
@<TRIPOS>BOND
     1     1     2 1   
     2     1     9 1   
     3     1    12 1   
     4     1    13 1   
     5     2     3 1   
     6     2     4 1   
     7     2    14 1   
     8     3    15 1   
     9     4     5 1   
    10     4     6 1   
    11     4    16 1   
    12     5    17 1   
    13     6     7 1   
    14     6     8 1   
    15     6    18 1   
    16     7    19 1   
    17     8     9 1   
    18     8    10 1   
    19     8    20 1   
    20     9    21 1   
    21    10    11 1   
    22    10    22 1   
    23    10    23 1   
    24    11    24 1   
@<TRIPOS>SUBSTRUCTURE
     1 NOJ         1 TEMP              0 ****  ****    0 ROOT
