@<TRIPOS>MOLECULE
NOJ
   24    24     1     0     0
SMALL
No Charge or Current Charge


@<TRIPOS>ATOM
      1 C1          -0.6300    -1.7970    -0.2370 c6         1 NOJ       0.123800
      2 C2          -1.6800    -0.7520     0.2500 c6         1 NOJ       0.097300
      3 O2          -3.0050    -1.0780    -0.2150 oh         1 NOJ      -0.722000
      4 C3          -1.2690     0.6580    -0.2570 c6         1 NOJ       0.136300
      5 O3          -2.2270     1.6370     0.1800 oh         1 NOJ      -0.672000
      6 C4           0.1590     1.0190     0.2440 c6         1 NOJ       0.145300
      7 O4           0.5010     2.3340    -0.2300 oh         1 NOJ      -0.717000
      8 C5           1.1860    -0.0710    -0.2240 c6         1 NOJ       0.167500
      9 N5           0.7500    -1.4470     0.2010 n7         1 NOJ      -0.833400
     10 C6           2.6330     0.2410     0.2990 c3         1 NOJ       0.171600
     11 O6           3.6240    -0.6920    -0.1720 oh         1 NOJ      -0.644000
     12 H11         -0.8930    -2.7940     0.1480 h1         1 NOJ       0.064200
     13 H12         -0.6590    -1.8540    -1.3370 h1         1 NOJ       0.064200
     14 H2          -1.6670    -0.7420     1.3510 h1         1 NOJ       0.038700
     15 HO2         -3.2660    -1.9300     0.2100 ho         1 NOJ       0.510000
     16 H3          -1.2480     0.6260    -1.3580 h1         1 NOJ       0.058700
     17 HO3         -3.0920     1.1670     0.1290 ho         1 NOJ       0.465000
     18 H4           0.1430     1.0220     1.3450 h1         1 NOJ       0.035700
     19 HO4         -0.3460     2.8390    -0.1730 ho         1 NOJ       0.524000
     20 H5           1.2280    -0.0400    -1.3240 h1         1 NOJ       0.087700
     21 HN5          0.8030    -1.5070     1.2260 hn         1 NOJ       0.409000
     22 H61          2.9080     1.2550    -0.0210 h1         1 NOJ       0.025700
     23 H62          2.6110     0.2420     1.3970 h1         1 NOJ       0.025700
     24 HO6          4.4740    -0.4450     0.2540 ho         1 NOJ       0.439000
@<TRIPOS>BOND
     1     1     2 1   
     2     1     9 1   
     3     1    12 1   
     4     1    13 1   
     5     2     3 1   
     6     2     4 1   
     7     2    14 1   
     8     3    15 1   
     9     4     5 1   
    10     4     6 1   
    11     4    16 1   
    12     5    17 1   
    13     6     7 1   
    14     6     8 1   
    15     6    18 1   
    16     7    19 1   
    17     8     9 1   
    18     8    10 1   
    19     8    20 1   
    20     9    21 1   
    21    10    11 1   
    22    10    22 1   
    23    10    23 1   
    24    11    24 1   
@<TRIPOS>SUBSTRUCTURE
     1 NOJ         1 TEMP              0 ****  ****    0 ROOT
