@<TRIPOS>MOLECULE
NOK
   30    30     1     0     0
SMALL
bcc


@<TRIPOS>ATOM
      1 C8           4.5640    -0.1170    -0.5440 c3         1 NOK      -0.182100
      2 C7           3.2920     0.0260     0.2540 c          1 NOK       0.669100
      3 O7           3.3080     0.0970     1.4750 o          1 NOK      -0.594100
      4 N2           2.1600     0.0600    -0.4750 ns         1 NOK      -0.579900
      5 C2           0.8290     0.1770     0.0740 c6         1 NOK       0.035700
      6 C1           0.1010     1.4070    -0.4780 c6         1 NOK       0.146800
      7 N5          -1.2600     1.5190    -0.0000 n7         1 NOK      -0.783200
      8 C5          -2.0650     0.3340    -0.2400 c6         1 NOK       0.168500
      9 C6          -3.4560     0.5240     0.3420 c3         1 NOK       0.148400
     10 O6          -4.0800     1.6190    -0.2870 oh         1 NOK      -0.582800
     11 C4          -1.4080    -0.9330     0.3220 c6         1 NOK       0.121100
     12 O4          -2.1920    -2.0510    -0.0210 oh         1 NOK      -0.595800
     13 C3           0.0090    -1.0760    -0.2240 c6         1 NOK       0.094100
     14 O3           0.5710    -2.2300     0.3600 oh         1 NOK      -0.597800
     15 H8C1         5.2510     0.6860    -0.2810 hc         1 NOK       0.061033
     16 H8C2         5.0490    -1.0570    -0.2790 hc         1 NOK       0.061033
     17 H8C3         4.4110    -0.1040    -1.6210 hc         1 NOK       0.061033
     18 H2           2.2420     0.0090    -1.4790 hn         1 NOK       0.307500
     19 HA           0.9310     0.2850     1.1560 h1         1 NOK       0.097700
     20 H1C1         0.6490     2.3100    -0.2040 h1         1 NOK       0.060200
     21 H1C2         0.0890     1.3630    -1.5730 h1         1 NOK       0.060200
     22 H3          -0.0630    -1.1940    -1.3170 h1         1 NOK       0.039700
     23 H5          -1.2570     1.7360     0.9910 hn         1 NOK       0.360800
     24 HB          -2.1590     0.2070    -1.3280 h1         1 NOK       0.083700
     25 H6C1        -4.0330    -0.3950     0.2060 h1         1 NOK       0.027200
     26 H6C2        -3.3610     0.6840     1.4270 h1         1 NOK       0.027200
     27 H4          -1.3410    -0.8250     1.4190 h1         1 NOK       0.043700
     28 H6          -4.9890     1.6550     0.0210 ho         1 NOK       0.401000
     29 HC          -1.7010    -2.8420     0.2260 ho         1 NOK       0.424000
     30 HD           1.3290    -2.5030    -0.1650 ho         1 NOK       0.414000
@<TRIPOS>BOND
     1     1     2 1   
     2     1    15 1   
     3     1    16 1   
     4     1    17 1   
     5     2     3 2   
     6     2     4 1   
     7     4     5 1   
     8     4    18 1   
     9     5     6 1   
    10     5    13 1   
    11     5    19 1   
    12     6     7 1   
    13     6    20 1   
    14     6    21 1   
    15     7     8 1   
    16     7    23 1   
    17     8     9 1   
    18     8    11 1   
    19     8    24 1   
    20     9    10 1   
    21     9    25 1   
    22     9    26 1   
    23    10    28 1   
    24    11    12 1   
    25    11    13 1   
    26    11    27 1   
    27    12    29 1   
    28    13    14 1   
    29    13    22 1   
    30    14    30 1   
@<TRIPOS>SUBSTRUCTURE
     1 NOK         1 TEMP              0 ****  ****    0 ROOT
