@<TRIPOS>MOLECULE
NOK
   30    30     1     0     0
SMALL
No Charge or Current Charge


@<TRIPOS>ATOM
      1 C8           4.6340     0.0730    -0.6110 c3         1 NOK      -0.182100
      2 C7           3.3510     0.3710     0.1520 c          1 NOK       0.602100
      3 O7           3.3270     1.0700     1.1540 o          1 NOK      -0.594100
      4 N2           2.2170    -0.2070    -0.3730 ns         1 NOK      -0.512900
      5 C2           0.8440    -0.0240     0.1470 c6         1 NOK       0.035700
      6 C1           0.2150     1.2880    -0.4060 c6         1 NOK       0.146800
      7 N5          -1.1780     1.4910     0.0720 n7         1 NOK      -0.838400
      8 C5          -2.0930     0.3460    -0.2540 c6         1 NOK       0.168500
      9 C6          -3.5400     0.6120     0.2970 c3         1 NOK       0.171600
     10 O6          -4.1410     1.8090    -0.2340 oh         1 NOK      -0.645000
     11 C4          -1.5150    -1.0070     0.2830 c6         1 NOK       0.144300
     12 O4          -2.3200    -2.1330    -0.1030 oh         1 NOK      -0.658000
     13 C3          -0.0650    -1.2240    -0.2420 c6         1 NOK       0.117300
     14 O3           0.4700    -2.4550     0.2780 oh         1 NOK      -0.660000
     15 H8C1         5.5130     0.5480    -0.1610 hc         1 NOK       0.061033
     16 H8C2         4.7570    -1.0130    -0.6920 hc         1 NOK       0.061033
     17 H8C3         4.5040     0.3710    -1.6580 hc         1 NOK       0.061033
     18 H2           2.3450    -0.7360    -1.2290 hn         1 NOK       0.307500
     19 HA           0.8890     0.0450     1.2440 h1         1 NOK       0.097700
     20 H1C1         0.8340     2.1460    -0.1040 h1         1 NOK       0.060200
     21 H1C2         0.2210     1.2560    -1.5070 h1         1 NOK       0.060200
     22 H3          -0.1020    -1.2770    -1.3410 h1         1 NOK       0.039700
     23 H5          -1.1670     1.6270     1.0910 hn         1 NOK       0.416000
     24 HB          -2.1760     0.2630    -1.3490 h1         1 NOK       0.083700
     25 H6C1        -4.1710    -0.2520     0.0510 h1         1 NOK       0.027200
     26 H6C2        -3.4860     0.6730     1.3920 h1         1 NOK       0.027200
     27 H4          -1.4730    -0.9480     1.3820 h1         1 NOK       0.043700
     28 H6          -5.0090     1.9150     0.2140 ho         1 NOK       0.440000
     29 HC          -1.7110    -2.9040    -0.0240 ho         1 NOK       0.463000
     30 HD           1.4480    -2.3520     0.2860 ho         1 NOK       0.453000
@<TRIPOS>BOND
     1     1     2 1   
     2     1    15 1   
     3     1    16 1   
     4     1    17 1   
     5     2     3 2   
     6     2     4 1   
     7     4     5 1   
     8     4    18 1   
     9     5     6 1   
    10     5    13 1   
    11     5    19 1   
    12     6     7 1   
    13     6    20 1   
    14     6    21 1   
    15     7     8 1   
    16     7    23 1   
    17     8     9 1   
    18     8    11 1   
    19     8    24 1   
    20     9    10 1   
    21     9    25 1   
    22     9    26 1   
    23    10    28 1   
    24    11    12 1   
    25    11    13 1   
    26    11    27 1   
    27    12    29 1   
    28    13    14 1   
    29    13    22 1   
    30    14    30 1   
@<TRIPOS>SUBSTRUCTURE
     1 NOK         1 TEMP              0 ****  ****    0 ROOT
