@<TRIPOS>MOLECULE
NOL
   93    95     1     0     0
SMALL
No Charge or Current Charge


@<TRIPOS>ATOM
      1 C1          -7.8570    -0.4510     1.0660 ca         1 NOL      -0.083500
      2 C2          -7.3680     0.7960     0.6280 ca         1 NOL      -0.100300
      3 C3          -7.7410     1.9670     1.3170 ca         1 NOL      -0.083500
      4 C4          -8.5970     1.8920     2.4300 ca         1 NOL      -0.116500
      5 C5          -9.0830     0.6460     2.8610 ca         1 NOL      -0.099000
      6 C6          -8.7120    -0.5250     2.1800 ca         1 NOL      -0.116500
      7 C13         -6.4410     0.8770    -0.5790 c3         1 NOL       0.229900
      8 O15         -5.0850     0.7800    -0.1150 os         1 NOL      -0.448100
      9 C17         -4.0980     0.8350    -1.0480 c          1 NOL       0.634100
     10 N19         -2.8910     0.7300    -0.4220 ns         1 NOL      -0.451900
     11 C21         -1.5670     0.7950    -1.0890 c3         1 NOL       0.027700
     12 C23         -0.5850    -0.2060    -0.4320 c          1 NOL       0.585100
     13 N25          0.5540    -0.4660    -1.1680 ns         1 NOL      -0.494900
     14 C27          1.6820    -1.3240    -0.7370 c3         1 NOL       0.030700
     15 C29          3.0230    -0.6600    -1.1640 c          1 NOL       0.590100
     16 N31          4.1360    -1.1030    -0.4830 ns         1 NOL      -0.494900
     17 C33          5.5120    -0.6310    -0.6930 c3         1 NOL       0.110700
     18 C35          6.4680    -1.8370    -0.9030 c3         1 NOL       0.145600
     19 O39          6.3910    -2.7600     0.1990 oh         1 NOL      -0.665000
     20 C41          5.9640     0.2960     0.4660 c3         1 NOL      -0.069400
     21 C43          5.1380     1.6040     0.6310 c5         1 NOL      -0.155700
     22 C45          5.2490     2.6110    -0.5480 c5         1 NOL      -0.095400
     23 C47          4.7910     3.9320     0.1280 c5         1 NOL       0.099000
     24 N49          5.3440     3.7570     1.4690 ns         1 NOL      -0.516900
     25 C51          5.5520     2.4560     1.8380 c          1 NOL       0.561000
     26 O54          6.1600     2.1370     2.8460 o          1 NOL      -0.553000
     27 O56          3.0910     0.2010    -2.0320 o          1 NOL      -0.626100
     28 C58          1.5600    -2.7530    -1.3360 c3         1 NOL      -0.087400
     29 C60          0.3680    -3.6260    -0.8330 c6         1 NOL      -0.063700
     30 C62          0.2430    -4.9270    -1.6750 c6         1 NOL      -0.069400
     31 C63         -0.9450    -5.8020    -1.2020 c6         1 NOL      -0.073900
     32 C64         -0.8260    -6.1400     0.3040 c6         1 NOL      -0.072400
     33 C65         -0.6980    -4.8540     1.1540 c6         1 NOL      -0.073900
     34 C66          0.4890    -3.9810     0.6780 c6         1 NOL      -0.069400
     35 O73         -0.7920    -0.7380     0.6520 o          1 NOL      -0.592100
     36 C75         -0.9650     2.2310    -1.0880 c3         1 NOL       0.180300
     37 C77         -1.7750     3.2210    -1.9560 c3         1 NOL      -0.109100
     38 O79         -0.9960     2.7220     0.2890 os         1 NOL      -0.477000
     39 C81          0.1770     3.3610     0.8550 c3         1 NOL       0.198000
     40 C83          0.5790     4.5940     0.0070 c3         1 NOL      -0.110433
     41 C85         -0.2600     3.8010     2.2680 c3         1 NOL      -0.110433
     42 C87          1.3240     2.3250     0.9490 c3         1 NOL      -0.110433
     43 O89         -4.2580     0.9530    -2.2530 o          1 NOL      -0.552000
     44 H1          -7.5720    -1.3630     0.5450 ha         1 NOL       0.116000
     45 H3          -7.3660     2.9350     0.9910 ha         1 NOL       0.116000
     46 H4          -8.8820     2.7990     2.9580 ha         1 NOL       0.113500
     47 H5          -9.7450     0.5890     3.7230 ha         1 NOL       0.112000
     48 H6          -9.0870    -1.4900     2.5140 ha         1 NOL       0.113500
     49 H131        -6.6060     1.8270    -1.1040 h1         1 NOL       0.055200
     50 H132        -6.6740     0.0610    -1.2760 h1         1 NOL       0.055200
     51 HN19        -2.9190     0.6390     0.5860 hn         1 NOL       0.344500
     52 H21         -1.6850     0.4690    -2.1310 h1         1 NOL       0.086700
     53 HN25         0.6550     0.0240    -2.0500 hn         1 NOL       0.326500
     54 H27          1.6980    -1.3790     0.3590 h1         1 NOL       0.092700
     55 HN31         3.9980    -1.8420     0.1980 hn         1 NOL       0.330500
     56 H33          5.5450    -0.0430    -1.6200 h1         1 NOL       0.080700
     57 H351         6.1900    -2.3450    -1.8360 h1         1 NOL       0.030700
     58 H352         7.4950    -1.4670    -1.0240 h1         1 NOL       0.030700
     59 HO39         7.0190    -3.4920     0.0060 ho         1 NOL       0.449000
     60 H411         5.9240    -0.2770     1.4010 hc         1 NOL       0.067700
     61 H412         7.0200     0.5540     0.3180 hc         1 NOL       0.067700
     62 H43          4.0820     1.3540     0.7720 hc         1 NOL       0.079700
     63 H451         6.2840     2.6980    -0.9000 hc         1 NOL       0.064200
     64 H452         4.6300     2.3460    -1.4110 hc         1 NOL       0.064200
     65 H471         5.1910     4.8170    -0.3860 h1         1 NOL       0.043200
     66 H472         3.6970     4.0130     0.1540 h1         1 NOL       0.043200
     67 HN49         5.6380     4.4980     2.0950 hn         1 NOL       0.326500
     68 H581         1.5030    -2.6530    -2.4280 hc         1 NOL       0.050200
     69 H582         2.4950    -3.2940    -1.1410 hc         1 NOL       0.050200
     70 H60         -0.5480    -3.0380    -0.9860 hc         1 NOL       0.065700
     71 H621         0.1090    -4.6770    -2.7360 hc         1 NOL       0.037450
     72 H622         1.1750    -5.5070    -1.6080 hc         1 NOL       0.037450
     73 H631        -1.8900    -5.2740    -1.3890 hc         1 NOL       0.042950
     74 H632        -0.9830    -6.7290    -1.7900 hc         1 NOL       0.042950
     75 H641        -1.7040    -6.7160     0.6270 hc         1 NOL       0.034700
     76 H642         0.0490    -6.7830     0.4710 hc         1 NOL       0.034700
     77 H651        -1.6300    -4.2750     1.0920 hc         1 NOL       0.042950
     78 H652        -0.5660    -5.1190     2.2120 hc         1 NOL       0.042950
     79 H661         1.4330    -4.5150     0.8610 hc         1 NOL       0.037450
     80 H662         0.5270    -3.0700     1.2890 hc         1 NOL       0.037450
     81 H75          0.0530     2.1740    -1.5170 h1         1 NOL       0.047700
     82 H771        -1.2470     4.1730    -2.0720 hc         1 NOL       0.046367
     83 H772        -1.9350     2.8080    -2.9590 hc         1 NOL       0.046367
     84 H773        -2.7550     3.4250    -1.5090 hc         1 NOL       0.046367
     85 H831        -0.2740     5.2700    -0.1280 hc         1 NOL       0.044256
     86 H832         1.3760     5.1560     0.5080 hc         1 NOL       0.044256
     87 H833         0.9560     4.3010    -0.9790 hc         1 NOL       0.044256
     88 H851        -0.5760     2.9370     2.8650 hc         1 NOL       0.044256
     89 H852         0.5650     4.2950     2.7960 hc         1 NOL       0.044256
     90 H853        -1.0990     4.5050     2.2150 hc         1 NOL       0.044256
     91 H871         1.7220     2.0670    -0.0380 hc         1 NOL       0.044256
     92 H872         2.1520     2.7320     1.5420 hc         1 NOL       0.044256
     93 H873         0.9850     1.4060     1.4410 hc         1 NOL       0.044256
@<TRIPOS>BOND
     1     1     2 ar  
     2     1     6 ar  
     3     1    44 1   
     4     2     3 ar  
     5     2     7 1   
     6     3     4 ar  
     7     3    45 1   
     8     4     5 ar  
     9     4    46 1   
    10     5     6 ar  
    11     5    47 1   
    12     6    48 1   
    13     7     8 1   
    14     7    49 1   
    15     7    50 1   
    16     8     9 1   
    17     9    10 1   
    18     9    43 2   
    19    10    11 1   
    20    10    51 1   
    21    11    12 1   
    22    11    36 1   
    23    11    52 1   
    24    12    13 1   
    25    12    35 2   
    26    13    14 1   
    27    13    53 1   
    28    14    15 1   
    29    14    28 1   
    30    14    54 1   
    31    15    16 1   
    32    15    27 2   
    33    16    17 1   
    34    16    55 1   
    35    17    18 1   
    36    17    20 1   
    37    17    56 1   
    38    18    19 1   
    39    18    57 1   
    40    18    58 1   
    41    19    59 1   
    42    20    21 1   
    43    20    60 1   
    44    20    61 1   
    45    21    22 1   
    46    21    25 1   
    47    21    62 1   
    48    22    23 1   
    49    22    63 1   
    50    22    64 1   
    51    23    24 1   
    52    23    65 1   
    53    23    66 1   
    54    24    25 1   
    55    24    67 1   
    56    25    26 2   
    57    28    29 1   
    58    28    68 1   
    59    28    69 1   
    60    29    30 1   
    61    29    34 1   
    62    29    70 1   
    63    30    31 1   
    64    30    71 1   
    65    30    72 1   
    66    31    32 1   
    67    31    73 1   
    68    31    74 1   
    69    32    33 1   
    70    32    75 1   
    71    32    76 1   
    72    33    34 1   
    73    33    77 1   
    74    33    78 1   
    75    34    79 1   
    76    34    80 1   
    77    36    37 1   
    78    36    38 1   
    79    36    81 1   
    80    37    82 1   
    81    37    83 1   
    82    37    84 1   
    83    38    39 1   
    84    39    40 1   
    85    39    41 1   
    86    39    42 1   
    87    40    85 1   
    88    40    86 1   
    89    40    87 1   
    90    41    88 1   
    91    41    89 1   
    92    41    90 1   
    93    42    91 1   
    94    42    92 1   
    95    42    93 1   
@<TRIPOS>SUBSTRUCTURE
     1 NOL         1 TEMP              0 ****  ****    0 ROOT
