@<TRIPOS>MOLECULE
NOL
   93    95     1     0     0
SMALL
abcg2


@<TRIPOS>ATOM
      1 C1          -6.1080    -0.8290     2.5790 ca         1 NOL      -0.083500
      2 C2          -6.4390    -0.5450     1.2560 ca         1 NOL      -0.100300
      3 C3          -7.6710     0.0370     0.9780 ca         1 NOL      -0.083500
      4 C4          -8.5620     0.3290     2.0030 ca         1 NOL      -0.116500
      5 C5          -8.2250     0.0430     3.3180 ca         1 NOL      -0.099000
      6 C6          -6.9950    -0.5370     3.6050 ca         1 NOL      -0.116500
      7 C13         -5.4670    -0.8380     0.1550 c3         1 NOL       0.229900
      8 O15         -4.5260     0.2420     0.1300 os         1 NOL      -0.448100
      9 C17         -3.4950     0.1250    -0.7120 c          1 NOL       0.634100
     10 N19         -2.7020     1.2170    -0.6640 ns         1 NOL      -0.451900
     11 C21         -1.3930     1.1640    -1.2530 c3         1 NOL       0.027700
     12 C23         -0.4930     0.2070    -0.4620 c          1 NOL       0.585100
     13 N25          0.5770    -0.2250    -1.1490 ns         1 NOL      -0.494900
     14 C27          1.5070    -1.2170    -0.6690 c3         1 NOL       0.030700
     15 C29          2.9300    -0.7250    -0.9090 c          1 NOL       0.590100
     16 N31          3.8100    -1.0560     0.0440 ns         1 NOL      -0.494900
     17 C33          5.2390    -0.8110    -0.0200 c3         1 NOL       0.110700
     18 C35          5.9970    -2.1250     0.0820 c3         1 NOL       0.145600
     19 O39          5.7160    -2.7230     1.3270 oh         1 NOL      -0.665000
     20 C41          5.6810     0.1960     1.0440 c3         1 NOL      -0.069400
     21 C43          4.9890     1.5420     0.9110 c5         1 NOL      -0.155700
     22 C45          5.2690     2.3140    -0.3790 c5         1 NOL      -0.095400
     23 C47          5.1540     3.7850     0.0320 c5         1 NOL       0.099000
     24 N49          5.4690     3.7410     1.4430 ns         1 NOL      -0.516900
     25 C51          5.3860     2.5240     2.0030 c          1 NOL       0.561000
     26 O54          5.5770     2.2580     3.1790 o          1 NOL      -0.553000
     27 O56          3.2130    -0.1190    -1.9340 o          1 NOL      -0.626100
     28 C58          1.3200    -2.5580    -1.3980 c3         1 NOL      -0.087400
     29 C60         -0.0820    -3.1500    -1.2830 c6         1 NOL      -0.063700
     30 C62         -0.2430    -4.3350    -2.2370 c6         1 NOL      -0.069400
     31 C63         -1.6510    -4.9200    -2.1710 c6         1 NOL      -0.073900
     32 C64         -2.0280    -5.3160    -0.7480 c6         1 NOL      -0.072400
     33 C65         -1.8510    -4.1450     0.2130 c6         1 NOL      -0.073900
     34 C66         -0.4380    -3.5740     0.1410 c6         1 NOL      -0.069400
     35 O73         -0.7510    -0.1160     0.6840 o          1 NOL      -0.592100
     36 C75         -0.7880     2.5750    -1.3270 c3         1 NOL       0.180300
     37 C77         -1.5900     3.4620    -2.2710 c3         1 NOL      -0.109100
     38 O79         -0.7840     3.1010    -0.0200 os         1 NOL      -0.477000
     39 C81          0.3850     3.7370     0.5010 c3         1 NOL       0.198000
     40 C83          0.8220     4.9120    -0.3690 c3         1 NOL      -0.110433
     41 C85         -0.0460     4.2360     1.8750 c3         1 NOL      -0.110433
     42 C87          1.5380     2.7470     0.6560 c3         1 NOL      -0.110433
     43 O89         -3.3210    -0.8270    -1.4440 o          1 NOL      -0.552000
     44 H1          -5.1540    -1.2880     2.8090 ha         1 NOL       0.116000
     45 H3          -7.9400     0.2610    -0.0480 ha         1 NOL       0.116000
     46 H4          -9.5190     0.7800     1.7720 ha         1 NOL       0.113500
     47 H5          -8.9180     0.2680     4.1190 ha         1 NOL       0.112000
     48 H6          -6.7270    -0.7640     4.6290 ha         1 NOL       0.113500
     49 H131        -5.9810    -0.9110    -0.8070 h1         1 NOL       0.055200
     50 H132        -4.9500    -1.7820     0.3340 h1         1 NOL       0.055200
     51 HN19        -2.8130     1.8430     0.1210 hn         1 NOL       0.344500
     52 H21         -1.4790     0.7930    -2.2780 h1         1 NOL       0.086700
     53 HN25         0.6750     0.0500    -2.1150 hn         1 NOL       0.326500
     54 H27          1.3290    -1.3480     0.3990 h1         1 NOL       0.092700
     55 HN31         3.4700    -1.5450     0.8590 hn         1 NOL       0.330500
     56 H33          5.4540    -0.4060    -1.0100 h1         1 NOL       0.080700
     57 H351         5.6960    -2.7700    -0.7520 h1         1 NOL       0.030700
     58 H352         7.0680    -1.9180    -0.0390 h1         1 NOL       0.030700
     59 HO39         6.1180    -3.5960     1.3410 ho         1 NOL       0.449000
     60 H411         5.4930    -0.2080     2.0410 hc         1 NOL       0.067700
     61 H412         6.7630     0.3330     0.9540 hc         1 NOL       0.067700
     62 H43          3.9090     1.3920     1.0260 hc         1 NOL       0.079700
     63 H451         6.2870     2.1040    -0.7180 hc         1 NOL       0.064200
     64 H452         4.5900     2.0580    -1.1880 hc         1 NOL       0.064200
     65 H471         5.8510     4.4260    -0.5070 h1         1 NOL       0.043200
     66 H472         4.1450     4.1750    -0.1370 h1         1 NOL       0.043200
     67 HN49         5.6240     4.5730     1.9910 hn         1 NOL       0.326500
     68 H581         1.5610    -2.4070    -2.4550 hc         1 NOL       0.050200
     69 H582         2.0540    -3.2730    -1.0110 hc         1 NOL       0.050200
     70 H60         -0.8060    -2.3850    -1.5910 hc         1 NOL       0.065700
     71 H621        -0.0200    -4.0190    -3.2610 hc         1 NOL       0.037450
     72 H622         0.4930    -5.1080    -1.9860 hc         1 NOL       0.037450
     73 H631        -2.3620    -4.1710    -2.5360 hc         1 NOL       0.042950
     74 H632        -1.7330    -5.7800    -2.8410 hc         1 NOL       0.042950
     75 H641        -3.0580    -5.6820    -0.7180 hc         1 NOL       0.034700
     76 H642        -1.3950    -6.1490    -0.4210 hc         1 NOL       0.034700
     77 H651        -2.5660    -3.3530    -0.0380 hc         1 NOL       0.042950
     78 H652        -2.0780    -4.4560     1.2360 hc         1 NOL       0.042950
     79 H661         0.2790    -4.3310     0.4820 hc         1 NOL       0.037450
     80 H662        -0.3560    -2.7270     0.8240 hc         1 NOL       0.037450
     81 H75          0.2250     2.4660    -1.7320 h1         1 NOL       0.047700
     82 H771        -1.0930     4.4190    -2.4200 hc         1 NOL       0.046367
     83 H772        -1.6910     2.9870    -3.2480 hc         1 NOL       0.046367
     84 H773        -2.5890     3.6550    -1.8820 hc         1 NOL       0.046367
     85 H831         0.0230     5.6480    -0.4760 hc         1 NOL       0.044256
     86 H832         1.6780     5.4150     0.0850 hc         1 NOL       0.044256
     87 H833         1.1310     4.5920    -1.3660 hc         1 NOL       0.044256
     88 H851        -0.3780     3.4080     2.5040 hc         1 NOL       0.044256
     89 H852         0.7850     4.7280     2.3810 hc         1 NOL       0.044256
     90 H853        -0.8630     4.9540     1.7930 hc         1 NOL       0.044256
     91 H871         1.9200     2.3920    -0.3030 hc         1 NOL       0.044256
     92 H872         2.3650     3.2350     1.1730 hc         1 NOL       0.044256
     93 H873         1.2370     1.8820     1.2480 hc         1 NOL       0.044256
@<TRIPOS>BOND
     1     1     2 ar  
     2     1     6 ar  
     3     1    44 1   
     4     2     3 ar  
     5     2     7 1   
     6     3     4 ar  
     7     3    45 1   
     8     4     5 ar  
     9     4    46 1   
    10     5     6 ar  
    11     5    47 1   
    12     6    48 1   
    13     7     8 1   
    14     7    49 1   
    15     7    50 1   
    16     8     9 1   
    17     9    10 1   
    18     9    43 2   
    19    10    11 1   
    20    10    51 1   
    21    11    12 1   
    22    11    36 1   
    23    11    52 1   
    24    12    13 1   
    25    12    35 2   
    26    13    14 1   
    27    13    53 1   
    28    14    15 1   
    29    14    28 1   
    30    14    54 1   
    31    15    16 1   
    32    15    27 2   
    33    16    17 1   
    34    16    55 1   
    35    17    18 1   
    36    17    20 1   
    37    17    56 1   
    38    18    19 1   
    39    18    57 1   
    40    18    58 1   
    41    19    59 1   
    42    20    21 1   
    43    20    60 1   
    44    20    61 1   
    45    21    22 1   
    46    21    25 1   
    47    21    62 1   
    48    22    23 1   
    49    22    63 1   
    50    22    64 1   
    51    23    24 1   
    52    23    65 1   
    53    23    66 1   
    54    24    25 1   
    55    24    67 1   
    56    25    26 2   
    57    28    29 1   
    58    28    68 1   
    59    28    69 1   
    60    29    30 1   
    61    29    34 1   
    62    29    70 1   
    63    30    31 1   
    64    30    71 1   
    65    30    72 1   
    66    31    32 1   
    67    31    73 1   
    68    31    74 1   
    69    32    33 1   
    70    32    75 1   
    71    32    76 1   
    72    33    34 1   
    73    33    77 1   
    74    33    78 1   
    75    34    79 1   
    76    34    80 1   
    77    36    37 1   
    78    36    38 1   
    79    36    81 1   
    80    37    82 1   
    81    37    83 1   
    82    37    84 1   
    83    38    39 1   
    84    39    40 1   
    85    39    41 1   
    86    39    42 1   
    87    40    85 1   
    88    40    86 1   
    89    40    87 1   
    90    41    88 1   
    91    41    89 1   
    92    41    90 1   
    93    42    91 1   
    94    42    92 1   
    95    42    93 1   
@<TRIPOS>SUBSTRUCTURE
     1 NOL         1 TEMP              0 ****  ****    0 ROOT
