@<TRIPOS>MOLECULE
NON
   32    31     1     0     0
SMALL
No Charge or Current Charge


@<TRIPOS>ATOM
      1 C1           2.3480    -6.7390    -6.2010 c          1 NON       0.590100
      2 C2           2.6870    -5.3950    -5.5520 c3         1 NON      -0.138400
      3 C3           1.4440    -4.4760    -5.4770 c3         1 NON      -0.068400
      4 C4           1.7420    -3.1100    -4.8210 c3         1 NON      -0.076400
      5 C5           0.5010    -2.1930    -4.7460 c3         1 NON      -0.074400
      6 C6           0.7990    -0.8270    -4.0900 c3         1 NON      -0.074400
      7 C7          -0.4410     0.0910    -4.0150 c3         1 NON      -0.075400
      8 C8          -0.1440     1.4570    -3.3590 c3         1 NON      -0.074400
      9 C9          -1.3810     2.3720    -3.2840 c3         1 NON      -0.088100
     10 O1           2.3310    -6.9220    -7.4110 o          1 NON      -0.487000
     11 O2           2.0290    -7.6910    -5.2670 os         1 NON      -0.449100
     12 CM           1.6690    -9.0040    -5.7340 c3         1 NON       0.152900
     13 H21          3.4660    -4.8970    -6.1410 hc         1 NON       0.070700
     14 H22          3.0310    -5.5690    -4.5250 hc         1 NON       0.070700
     15 H31          1.0550    -4.3130    -6.4900 hc         1 NON       0.054200
     16 H32          0.6530    -4.9850    -4.9100 hc         1 NON       0.054200
     17 H41          2.5320    -2.6020    -5.3880 hc         1 NON       0.037200
     18 H42          2.1290    -3.2740    -3.8070 hc         1 NON       0.037200
     19 H51          0.1140    -2.0290    -5.7600 hc         1 NON       0.040200
     20 H52         -0.2890    -2.7000    -4.1790 hc         1 NON       0.040200
     21 H61          1.1870    -0.9910    -3.0770 hc         1 NON       0.036700
     22 H62          1.5890    -0.3190    -4.6570 hc         1 NON       0.036700
     23 H71         -1.2310    -0.4170    -3.4480 hc         1 NON       0.037700
     24 H72         -0.8290     0.2550    -5.0280 hc         1 NON       0.037700
     25 H81          0.6440     1.9680    -3.9250 hc         1 NON       0.036200
     26 H82          0.2420     1.2970    -2.3450 hc         1 NON       0.036200
     27 H91         -2.1770     1.9030    -2.6930 hc         1 NON       0.031700
     28 H92         -1.7710     2.5800    -4.2880 hc         1 NON       0.031700
     29 H93         -1.1220     3.3270    -2.8120 hc         1 NON       0.031700
     30 HM1          0.7820    -8.9610    -6.3800 h1         1 NON       0.047700
     31 HM2          1.4410    -9.6620    -4.8870 h1         1 NON       0.047700
     32 HM3          2.4920    -9.4560    -6.3040 h1         1 NON       0.047700
@<TRIPOS>BOND
     1     1     2 1   
     2     1    10 2   
     3     1    11 1   
     4     2     3 1   
     5     2    13 1   
     6     2    14 1   
     7     3     4 1   
     8     3    15 1   
     9     3    16 1   
    10     4     5 1   
    11     4    17 1   
    12     4    18 1   
    13     5     6 1   
    14     5    19 1   
    15     5    20 1   
    16     6     7 1   
    17     6    21 1   
    18     6    22 1   
    19     7     8 1   
    20     7    23 1   
    21     7    24 1   
    22     8     9 1   
    23     8    25 1   
    24     8    26 1   
    25     9    27 1   
    26     9    28 1   
    27     9    29 1   
    28    11    12 1   
    29    12    30 1   
    30    12    31 1   
    31    12    32 1   
@<TRIPOS>SUBSTRUCTURE
     1 NON         1 TEMP              0 ****  ****    0 ROOT
