@<TRIPOS>MOLECULE
NON
   32    31     1     0     0
SMALL
abcg2


@<TRIPOS>ATOM
      1 C1           1.8470    -6.8490    -5.8890 c          1 NON       0.590100
      2 C2           2.1060    -5.5980    -5.0950 c3         1 NON      -0.138400
      3 C3           1.1010    -4.4880    -5.3590 c3         1 NON      -0.068400
      4 C4           1.4010    -3.2380    -4.5420 c3         1 NON      -0.076400
      5 C5           0.3900    -2.1220    -4.7740 c3         1 NON      -0.074400
      6 C6           0.6850    -0.8660    -3.9640 c3         1 NON      -0.074400
      7 C7          -0.3340     0.2460    -4.1810 c3         1 NON      -0.075400
      8 C8          -0.0390     1.5000    -3.3650 c3         1 NON      -0.074400
      9 C9          -1.0660     2.6040    -3.5750 c3         1 NON      -0.088100
     10 O1           1.0130    -6.9660    -6.7520 o          1 NON      -0.487000
     11 O2           2.6630    -7.8340    -5.5290 os         1 NON      -0.449100
     12 CM           2.5330    -9.0810    -6.2120 c3         1 NON       0.152900
     13 H21          3.1210    -5.2570    -5.3280 hc         1 NON       0.070700
     14 H22          2.1230    -5.8580    -4.0320 hc         1 NON       0.070700
     15 H31          1.0990    -4.2350    -6.4220 hc         1 NON       0.054200
     16 H32          0.0930    -4.8420    -5.1230 hc         1 NON       0.054200
     17 H41          2.4060    -2.8740    -4.7850 hc         1 NON       0.037200
     18 H42          1.4200    -3.4930    -3.4760 hc         1 NON       0.037200
     19 H51          0.3660    -1.8700    -5.8400 hc         1 NON       0.040200
     20 H52         -0.6130    -2.4870    -4.5260 hc         1 NON       0.040200
     21 H61          0.7190    -1.1220    -2.8990 hc         1 NON       0.036700
     22 H62          1.6850    -0.4960    -4.2180 hc         1 NON       0.036700
     23 H71         -1.3340    -0.1230    -3.9280 hc         1 NON       0.037700
     24 H72         -0.3670     0.5070    -5.2450 hc         1 NON       0.037700
     25 H81          0.9570     1.8730    -3.6230 hc         1 NON       0.036200
     26 H82          0.0020     1.2380    -2.3040 hc         1 NON       0.036200
     27 H91         -2.0660     2.2740    -3.2890 hc         1 NON       0.031700
     28 H92         -1.1080     2.9120    -4.6220 hc         1 NON       0.031700
     29 H93         -0.8270     3.4890    -2.9830 hc         1 NON       0.031700
     30 HM1          1.5390    -9.5080    -6.0770 h1         1 NON       0.047700
     31 HM2          3.2700    -9.7430    -5.7680 h1         1 NON       0.047700
     32 HM3          2.7370    -8.9760    -7.2770 h1         1 NON       0.047700
@<TRIPOS>BOND
     1     1     2 1   
     2     1    10 2   
     3     1    11 1   
     4     2     3 1   
     5     2    13 1   
     6     2    14 1   
     7     3     4 1   
     8     3    15 1   
     9     3    16 1   
    10     4     5 1   
    11     4    17 1   
    12     4    18 1   
    13     5     6 1   
    14     5    19 1   
    15     5    20 1   
    16     6     7 1   
    17     6    21 1   
    18     6    22 1   
    19     7     8 1   
    20     7    23 1   
    21     7    24 1   
    22     8     9 1   
    23     8    25 1   
    24     8    26 1   
    25     9    27 1   
    26     9    28 1   
    27     9    29 1   
    28    11    12 1   
    29    12    30 1   
    30    12    31 1   
    31    12    32 1   
@<TRIPOS>SUBSTRUCTURE
     1 NON         1 TEMP              0 ****  ****    0 ROOT
