@<TRIPOS>MOLECULE
NOO
   40    40     1     0     0
SMALL
bcc


@<TRIPOS>ATOM
      1 C1          -5.2010     0.8870    -0.0770 c          1 NOO       0.591300
      2 O1          -5.9810     1.8280    -0.1210 o          1 NOO      -0.542100
      3 C2          -3.7790     1.0700    -0.3020 ce         1 NOO      -0.365200
      4 C3          -2.8820     0.0560    -0.2310 c2         1 NOO       0.122400
      5 C4          -3.3130    -1.3650    -0.0260 c6         1 NOO      -0.052200
      6 C5          -4.7780    -1.5550    -0.3910 c6         1 NOO      -0.068400
      7 C6          -5.6580    -0.5070     0.2690 c6         1 NOO      -0.182400
      8 N7          -1.5470     0.3620    -0.3870 ns         1 NOO      -0.494100
      9 C8          -0.4350    -0.4070    -0.1390 c          1 NOO       0.677100
     10 O8          -0.4860    -1.5190     0.3410 o          1 NOO      -0.562100
     11 C9           0.8580     0.2630    -0.5410 c3         1 NOO      -0.159400
     12 C10          2.0850    -0.3260     0.1370 c3         1 NOO      -0.066400
     13 C11          3.3740     0.3260    -0.3470 c3         1 NOO      -0.076400
     14 C12          4.6120    -0.2530     0.3260 c3         1 NOO      -0.075400
     15 C13          5.9140     0.3590    -0.1740 c3         1 NOO      -0.075400
     16 C14          7.1490    -0.2310     0.4970 c3         1 NOO      -0.074400
     17 C15          8.4490     0.3730    -0.0160 c3         1 NOO      -0.088100
     18 H2          -3.4370     2.0840    -0.4830 ha         1 NOO       0.142000
     19 H4          -2.6970    -2.0340    -0.6250 hc         1 NOO       0.075700
     20 H4A         -3.1400    -1.6450     1.0170 hc         1 NOO       0.075700
     21 H5          -4.8920    -1.4960    -1.4760 hc         1 NOO       0.050700
     22 H5A         -5.0950    -2.5550    -0.0950 hc         1 NOO       0.050700
     23 H6          -5.6050    -0.6090     1.3600 hc         1 NOO       0.070200
     24 H6A         -6.7060    -0.6250    -0.0080 hc         1 NOO       0.070200
     25 HN7         -1.3600     1.3180    -0.6550 hn         1 NOO       0.319500
     26 H9           0.9460     0.1620    -1.6290 hc         1 NOO       0.061700
     27 H9A          0.7970     1.3390    -0.3510 hc         1 NOO       0.061700
     28 H10          1.9990    -0.2050     1.2210 hc         1 NOO       0.056700
     29 H10A         2.1330    -1.4010    -0.0520 hc         1 NOO       0.056700
     30 H11          3.4580     0.2010    -1.4320 hc         1 NOO       0.037200
     31 H11A         3.3320     1.4060    -0.1680 hc         1 NOO       0.037200
     32 H12          4.5350    -0.1130     1.4100 hc         1 NOO       0.040200
     33 H12A         4.6360    -1.3370     0.1640 hc         1 NOO       0.040200
     34 H13          5.9880     0.2170    -1.2580 hc         1 NOO       0.037200
     35 H13A         5.8940     1.4420    -0.0120 hc         1 NOO       0.037200
     36 H14          7.0770    -0.0840     1.5790 hc         1 NOO       0.037700
     37 H14A         7.1610    -1.3140     0.3400 hc         1 NOO       0.037700
     38 H15          8.5600     0.2140    -1.0900 hc         1 NOO       0.031700
     39 H15A         8.4820     1.4500     0.1610 hc         1 NOO       0.031700
     40 H15B         9.3170    -0.0690     0.4750 hc         1 NOO       0.031700
@<TRIPOS>BOND
     1     1     2 2   
     2     1     3 1   
     3     1     7 1   
     4     3     4 2   
     5     3    18 1   
     6     4     5 1   
     7     4     8 1   
     8     5     6 1   
     9     5    19 1   
    10     5    20 1   
    11     6     7 1   
    12     6    21 1   
    13     6    22 1   
    14     7    23 1   
    15     7    24 1   
    16     8     9 1   
    17     8    25 1   
    18     9    10 2   
    19     9    11 1   
    20    11    12 1   
    21    11    26 1   
    22    11    27 1   
    23    12    13 1   
    24    12    28 1   
    25    12    29 1   
    26    13    14 1   
    27    13    30 1   
    28    13    31 1   
    29    14    15 1   
    30    14    32 1   
    31    14    33 1   
    32    15    16 1   
    33    15    34 1   
    34    15    35 1   
    35    16    17 1   
    36    16    36 1   
    37    16    37 1   
    38    17    38 1   
    39    17    39 1   
    40    17    40 1   
@<TRIPOS>SUBSTRUCTURE
     1 NOO         1 TEMP              0 ****  ****    0 ROOT
