@<TRIPOS>MOLECULE
NOO
   40    40     1     0     0
SMALL
No Charge or Current Charge


@<TRIPOS>ATOM
      1 C1          -4.7260     1.0280     0.8510 c          1 NOO       0.591300
      2 O1          -5.2960     2.0500     1.2050 o          1 NOO      -0.542100
      3 C2          -3.3140     1.0360     0.3930 ce         1 NOO      -0.415200
      4 C3          -2.7200    -0.0190    -0.1980 c2         1 NOO       0.122400
      5 C4          -3.4620    -1.3400    -0.4250 c6         1 NOO      -0.052200
      6 C5          -5.0020    -1.1820    -0.3700 c6         1 NOO      -0.068400
      7 C6          -5.4240    -0.3340     0.8510 c6         1 NOO      -0.182400
      8 N7          -1.3820     0.1040    -0.6120 ns         1 NOO      -0.427100
      9 C8          -0.4560    -0.8650    -0.9590 c          1 NOO       0.610100
     10 O8          -0.6790    -2.0660    -0.9240 o          1 NOO      -0.562100
     11 C9           0.8980    -0.3100    -1.4170 c3         1 NOO      -0.159400
     12 C10          1.9920    -0.5150    -0.3410 c3         1 NOO      -0.066400
     13 C11          3.3700     0.0340    -0.7710 c3         1 NOO      -0.076400
     14 C12          4.4630    -0.1700     0.3010 c3         1 NOO      -0.075400
     15 C13          5.8410     0.3790    -0.1280 c3         1 NOO      -0.075400
     16 C14          6.9340     0.1750     0.9430 c3         1 NOO      -0.074400
     17 C15          8.3090     0.7220     0.5150 c3         1 NOO      -0.088100
     18 H2          -2.7910     1.9810     0.5220 ha         1 NOO       0.192000
     19 H4          -3.1920    -1.7660    -1.4000 hc         1 NOO       0.075700
     20 H4A         -3.1410    -2.0640     0.3360 hc         1 NOO       0.075700
     21 H5          -5.3540    -0.6950    -1.2900 hc         1 NOO       0.050700
     22 H5A         -5.4820    -2.1700    -0.3350 hc         1 NOO       0.050700
     23 H6          -5.0610    -0.8660     1.7410 hc         1 NOO       0.070200
     24 H6A         -6.5110    -0.2100     0.9430 hc         1 NOO       0.070200
     25 HN7         -1.0210     1.0480    -0.6560 hn         1 NOO       0.319500
     26 H9           1.2030    -0.8440    -2.3260 hc         1 NOO       0.061700
     27 H9A          0.8150     0.7620    -1.6290 hc         1 NOO       0.061700
     28 H10          1.6810    -0.0210     0.5890 hc         1 NOO       0.056700
     29 H10A         2.0840    -1.5860    -0.1180 hc         1 NOO       0.056700
     30 H11          3.6810    -0.4600    -1.7000 hc         1 NOO       0.037200
     31 H11A         3.2790     1.1050    -0.9930 hc         1 NOO       0.037200
     32 H12          4.1520     0.3240     1.2310 hc         1 NOO       0.040200
     33 H12A         4.5550    -1.2410     0.5230 hc         1 NOO       0.040200
     34 H13          6.1520    -0.1150    -1.0580 hc         1 NOO       0.037200
     35 H13A         5.7490     1.4490    -0.3500 hc         1 NOO       0.037200
     36 H14          6.6280     0.6690     1.8740 hc         1 NOO       0.037700
     37 H14A         7.0300    -0.8950     1.1660 hc         1 NOO       0.037700
     38 H15          8.6600     0.2210    -0.3960 hc         1 NOO       0.031700
     39 H15A         8.2540     1.8000     0.3180 hc         1 NOO       0.031700
     40 H15B         9.0500     0.5550     1.3050 hc         1 NOO       0.031700
@<TRIPOS>BOND
     1     1     2 2   
     2     1     3 1   
     3     1     7 1   
     4     3     4 2   
     5     3    18 1   
     6     4     5 1   
     7     4     8 1   
     8     5     6 1   
     9     5    19 1   
    10     5    20 1   
    11     6     7 1   
    12     6    21 1   
    13     6    22 1   
    14     7    23 1   
    15     7    24 1   
    16     8     9 1   
    17     8    25 1   
    18     9    10 2   
    19     9    11 1   
    20    11    12 1   
    21    11    26 1   
    22    11    27 1   
    23    12    13 1   
    24    12    28 1   
    25    12    29 1   
    26    13    14 1   
    27    13    30 1   
    28    13    31 1   
    29    14    15 1   
    30    14    32 1   
    31    14    33 1   
    32    15    16 1   
    33    15    34 1   
    34    15    35 1   
    35    16    17 1   
    36    16    36 1   
    37    16    37 1   
    38    17    38 1   
    39    17    39 1   
    40    17    40 1   
@<TRIPOS>SUBSTRUCTURE
     1 NOO         1 TEMP              0 ****  ****    0 ROOT
