@<TRIPOS>MOLECULE
NOQ
   50    51     1     0     0
SMALL
abcg2


@<TRIPOS>ATOM
      1 C2          -3.1730    -1.7150     0.9750 ca         1 NOQ      -0.198500
      2 C3          -3.9040    -1.9080    -0.2040 ca         1 NOQ       0.197100
      3 C4          -3.8040    -0.9780    -1.2400 ca         1 NOQ      -0.198500
      4 C5          -2.9780     0.1260    -1.0960 ca         1 NOQ       0.025000
      5 C6          -2.3550    -0.6160     1.1150 ca         1 NOQ       0.025000
      6 C7          -2.2570     0.3050     0.0740 ca         1 NOQ      -0.317500
      7 O1          -4.6670    -3.0030    -0.2500 os         1 NOQ      -0.334100
      8 C11          3.1790    -2.5400     0.1470 c3         1 NOQ       0.102000
      9 N10          3.0670    -1.1850    -0.3500 ns         1 NOQ      -0.512900
     10 C18          2.9920    -0.1180     0.4560 c          1 NOQ       0.595100
     11 O19          2.9970    -0.2140     1.6770 o          1 NOQ      -0.600100
     12 C12          2.8970     1.2320    -0.2340 c6         1 NOQ      -0.130700
     13 C16          4.1210     2.0740     0.1350 c6         1 NOQ      -0.068400
     14 C17          4.0590     3.4590    -0.4940 c6         1 NOQ      -0.075400
     15 C15          2.7730     4.1710    -0.1010 c6         1 NOQ      -0.072400
     16 C14          1.5430     3.3470    -0.4620 c6         1 NOQ      -0.081400
     17 C13          1.5880     1.9480     0.1540 c6         1 NOQ      -0.017700
     18 C30          0.4080     1.0750    -0.2740 c3         1 NOQ      -0.299400
     19 S8          -1.1940     1.7050     0.2430 sy         1 NOQ       1.052500
     20 O9          -1.6470     2.7300    -0.6980 o          1 NOQ      -0.522500
     21 O41         -1.1050     2.0490     1.6630 o          1 NOQ      -0.522500
     22 C44         -5.4300    -3.2590    -1.4180 c3         1 NOQ       0.145900
     23 C20          3.1400    -3.5310    -1.0050 c3         1 NOQ       0.133800
     24 N21          3.2410    -4.8850    -0.4890 n8         1 NOQ      -0.992200
     25 H2          -3.2600    -2.4350     1.7780 ha         1 NOQ       0.129000
     26 H4          -4.3610    -1.0900    -2.1590 ha         1 NOQ       0.129000
     27 H5          -2.9100     0.8400    -1.9050 ha         1 NOQ       0.139000
     28 H6          -1.8020    -0.4790     2.0340 ha         1 NOQ       0.139000
     29 H111         4.1100    -2.6670     0.7050 h1         1 NOQ       0.060200
     30 H112         2.3580    -2.7440     0.8410 h1         1 NOQ       0.060200
     31 HN10         3.0720    -1.0410    -1.3470 hn         1 NOQ       0.309500
     32 H12          2.8970     1.0930    -1.3220 hc         1 NOQ       0.046700
     33 H161         5.0270     1.5540    -0.1880 hc         1 NOQ       0.054200
     34 H162         4.1810     2.1670     1.2230 hc         1 NOQ       0.054200
     35 H171         4.1150     3.3710    -1.5840 hc         1 NOQ       0.041200
     36 H172         4.9280     4.0430    -0.1830 hc         1 NOQ       0.041200
     37 H151         2.7120     5.1490    -0.5840 hc         1 NOQ       0.046700
     38 H152         2.7780     4.3580     0.9780 hc         1 NOQ       0.046700
     39 H141         1.4620     3.2580    -1.5500 hc         1 NOQ       0.050200
     40 H142         0.6490     3.8750    -0.1270 hc         1 NOQ       0.050200
     41 H13          1.5710     2.0410     1.2440 hc         1 NOQ       0.091700
     42 H301         0.4760     0.0760     0.1640 h1         1 NOQ       0.092200
     43 H302         0.3590     0.9570    -1.3590 h1         1 NOQ       0.092200
     44 H441        -4.7950    -3.3610    -2.3010 h1         1 NOQ       0.047033
     45 H442        -5.9480    -4.1980    -1.2450 h1         1 NOQ       0.047033
     46 H443        -6.1670    -2.4740    -1.5970 h1         1 NOQ       0.047033
     47 H201         2.2370    -3.3500    -1.6070 h1         1 NOQ       0.028700
     48 H202         3.9940    -3.3490    -1.6620 h1         1 NOQ       0.028700
     49 H211         2.3620    -5.1530    -0.0650 hn         1 NOQ       0.397500
     50 H212         3.3800    -5.5270    -1.2580 hn         1 NOQ       0.397500
@<TRIPOS>BOND
     1     1     2 ar  
     2     1     5 ar  
     3     1    25 1   
     4     2     3 ar  
     5     2     7 1   
     6     3     4 ar  
     7     3    26 1   
     8     4     6 ar  
     9     4    27 1   
    10     5     6 ar  
    11     5    28 1   
    12     6    19 1   
    13     7    22 1   
    14     8     9 1   
    15     8    23 1   
    16     8    29 1   
    17     8    30 1   
    18     9    10 1   
    19     9    31 1   
    20    10    11 2   
    21    10    12 1   
    22    12    13 1   
    23    12    17 1   
    24    12    32 1   
    25    13    14 1   
    26    13    33 1   
    27    13    34 1   
    28    14    15 1   
    29    14    35 1   
    30    14    36 1   
    31    15    16 1   
    32    15    37 1   
    33    15    38 1   
    34    16    17 1   
    35    16    39 1   
    36    16    40 1   
    37    17    18 1   
    38    17    41 1   
    39    18    19 1   
    40    18    42 1   
    41    18    43 1   
    42    19    20 2   
    43    19    21 2   
    44    22    44 1   
    45    22    45 1   
    46    22    46 1   
    47    23    24 1   
    48    23    47 1   
    49    23    48 1   
    50    24    49 1   
    51    24    50 1   
@<TRIPOS>SUBSTRUCTURE
     1 NOQ         1 TEMP              0 ****  ****    0 ROOT
