@<TRIPOS>MOLECULE
NOQ
   50    51     1     0     0
SMALL
No Charge or Current Charge


@<TRIPOS>ATOM
      1 C2          -2.9810    -2.1230     0.6170 ca         1 NOQ      -0.198500
      2 C3          -3.6830    -2.1860    -0.5950 ca         1 NOQ       0.197100
      3 C4          -3.6120    -1.1040    -1.4980 ca         1 NOQ      -0.198500
      4 C5          -2.8430     0.0300    -1.1820 ca         1 NOQ       0.025000
      5 C6          -2.2110    -0.9940     0.9400 ca         1 NOQ       0.025000
      6 C7          -2.1440     0.0870     0.0400 ca         1 NOQ      -0.317500
      7 O1          -4.4220    -3.3230    -0.8530 os         1 NOQ      -0.334100
      8 C11          3.3480    -2.5450    -0.4390 c3         1 NOQ       0.102000
      9 N10          3.2590    -1.1040    -0.7050 ns         1 NOQ      -0.512900
     10 C18          3.2370    -0.1270     0.2670 c          1 NOQ       0.595100
     11 O19          3.3530    -0.3910     1.4550 o          1 NOQ      -0.600100
     12 C12          3.0520     1.3210    -0.2380 c6         1 NOQ      -0.130700
     13 C16          4.2980     2.2040     0.0450 c6         1 NOQ      -0.068400
     14 C17          4.1280     3.6210    -0.5480 c6         1 NOQ      -0.075400
     15 C15          2.8210     4.2780    -0.0450 c6         1 NOQ      -0.072400
     16 C14          1.5850     3.4090    -0.3890 c6         1 NOQ      -0.081400
     17 C13          1.6980     1.9690     0.1970 c6         1 NOQ      -0.017700
     18 C30          0.4850     1.0670    -0.2110 c3         1 NOQ      -0.299400
     19 S8          -1.1410     1.5290     0.4400 sy         1 NOQ       1.052500
     20 O9          -1.6240     2.6670    -0.3530 o          1 NOQ      -0.522500
     21 O41         -1.0090     1.6150     1.9000 o          1 NOQ      -0.522500
     22 C44         -5.1780    -3.4880    -2.0660 c3         1 NOQ       0.145900
     23 C20          2.0280    -3.1310     0.1260 c3         1 NOQ       0.133800
     24 N21          2.1030    -4.5930     0.3540 n8         1 NOQ      -0.992200
     25 H2          -3.0340    -2.9570     1.3120 ha         1 NOQ       0.129000
     26 H4          -4.1420    -1.1230    -2.4450 ha         1 NOQ       0.129000
     27 H5          -2.7930     0.8560    -1.8910 ha         1 NOQ       0.139000
     28 H6          -1.6700    -0.9670     1.8860 ha         1 NOQ       0.139000
     29 H111         3.5980    -3.0560    -1.3780 h1         1 NOQ       0.060200
     30 H112         4.1650    -2.7250     0.2720 h1         1 NOQ       0.060200
     31 HN10         3.1600    -0.7960    -1.6650 hn         1 NOQ       0.309500
     32 H12          2.9970     1.2390    -1.3330 hc         1 NOQ       0.046700
     33 H161         5.1970     1.7320    -0.3750 hc         1 NOQ       0.054200
     34 H162         4.4620     2.2760     1.1290 hc         1 NOQ       0.054200
     35 H171         4.1180     3.5670    -1.6460 hc         1 NOQ       0.041200
     36 H172         4.9890     4.2460    -0.2740 hc         1 NOQ       0.041200
     37 H151         2.7100     5.2740    -0.4940 hc         1 NOQ       0.046700
     38 H152         2.8770     4.4310     1.0420 hc         1 NOQ       0.046700
     39 H141         1.4650     3.3600    -1.4800 hc         1 NOQ       0.050200
     40 H142         0.6910     3.9110     0.0000 hc         1 NOQ       0.050200
     41 H13          1.6940     2.0380     1.2950 hc         1 NOQ       0.091700
     42 H301         0.6480     0.0490     0.1580 h1         1 NOQ       0.092200
     43 H302         0.3930     1.0260    -1.3020 h1         1 NOQ       0.092200
     44 H441        -4.5200    -3.4500    -2.9440 h1         1 NOQ       0.047033
     45 H442        -5.6880    -4.4590    -2.0670 h1         1 NOQ       0.047033
     46 H443        -5.9400    -2.7040    -2.1610 h1         1 NOQ       0.047033
     47 H201         1.7810    -2.6410     1.0780 h1         1 NOQ       0.028700
     48 H202         1.2120    -2.9330    -0.5830 h1         1 NOQ       0.028700
     49 H211         2.7840    -4.7830     1.1010 hn         1 NOQ       0.397500
     50 H212         1.2140    -4.9160     0.7560 hn         1 NOQ       0.397500
@<TRIPOS>BOND
     1     1     2 ar  
     2     1     5 ar  
     3     1    25 1   
     4     2     3 ar  
     5     2     7 1   
     6     3     4 ar  
     7     3    26 1   
     8     4     6 ar  
     9     4    27 1   
    10     5     6 ar  
    11     5    28 1   
    12     6    19 1   
    13     7    22 1   
    14     8     9 1   
    15     8    23 1   
    16     8    29 1   
    17     8    30 1   
    18     9    10 1   
    19     9    31 1   
    20    10    11 2   
    21    10    12 1   
    22    12    13 1   
    23    12    17 1   
    24    12    32 1   
    25    13    14 1   
    26    13    33 1   
    27    13    34 1   
    28    14    15 1   
    29    14    35 1   
    30    14    36 1   
    31    15    16 1   
    32    15    37 1   
    33    15    38 1   
    34    16    17 1   
    35    16    39 1   
    36    16    40 1   
    37    17    18 1   
    38    17    41 1   
    39    18    19 1   
    40    18    42 1   
    41    18    43 1   
    42    19    20 2   
    43    19    21 2   
    44    22    44 1   
    45    22    45 1   
    46    22    46 1   
    47    23    24 1   
    48    23    47 1   
    49    23    48 1   
    50    24    49 1   
    51    24    50 1   
@<TRIPOS>SUBSTRUCTURE
     1 NOQ         1 TEMP              0 ****  ****    0 ROOT
