@<TRIPOS>MOLECULE
NOR
   42    42     1     0     0
SMALL
No Charge or Current Charge


@<TRIPOS>ATOM
      1 N           -0.3530     1.6960     1.9180 n8         1 NOR      -1.004200
      2 CA           0.0360     0.9870     0.6600 c3         1 NOR       0.135500
      3 CB          -1.1510     1.0080    -0.3400 c3         1 NOR      -0.107400
      4 CG          -2.4780     0.3140     0.1140 c6         1 NOR      -0.062700
      5 CD1         -2.2890    -1.2040     0.4110 c6         1 NOR      -0.072900
      6 CD2         -3.5900     0.5140    -0.9560 c6         1 NOR      -0.072900
      7 CE1         -3.6220    -1.8760     0.8270 c6         1 NOR      -0.073400
      8 CE2         -4.9210    -0.1560    -0.5340 c6         1 NOR      -0.073400
      9 CZ          -4.7200    -1.6620    -0.2420 c6         1 NOR      -0.074400
     10 CH           1.3230     1.6310     0.0520 c3         1 NOR       0.127300
     11 OH           1.3840     2.9760     0.5760 oh         1 NOR      -0.650000
     12 C            2.5870     0.7700     0.3620 c          1 NOR       0.583100
     13 O1           3.5030     1.1140     1.1030 o          1 NOR      -0.492000
     14 O2           2.5400    -0.4350    -0.3000 os         1 NOR      -0.452100
     15 CM           3.6400    -1.3550    -0.1750 c3         1 NOR       0.181300
     16 CM1          3.1060    -2.7340    -0.6030 c3         1 NOR      -0.106100
     17 CM2          4.7960    -0.8680    -1.0770 c3         1 NOR      -0.106100
     18 HN1         -1.3590     1.5550     2.0720 hn         1 NOR       0.400000
     19 HN2          0.0680     1.2130     2.7230 hn         1 NOR       0.400000
     20 HA           0.2450    -0.0660     0.8990 h1         1 NOR       0.073700
     21 HB1         -1.3610     2.0550    -0.5960 hc         1 NOR       0.053700
     22 HB2         -0.8150     0.5380    -1.2740 hc         1 NOR       0.053700
     23 HG          -2.8080     0.8130     1.0360 hc         1 NOR       0.037700
     24 HD11        -1.8830    -1.7100    -0.4750 hc         1 NOR       0.039450
     25 HD12        -1.5580    -1.3500     1.2170 hc         1 NOR       0.039450
     26 HD21        -3.7600     1.5860    -1.1240 hc         1 NOR       0.039450
     27 HD22        -3.2610     0.0980    -1.9190 hc         1 NOR       0.039450
     28 HE11        -3.4630    -2.9520     0.9860 hc         1 NOR       0.038700
     29 HE12        -3.9580    -1.4660     1.7900 hc         1 NOR       0.038700
     30 HE21        -5.3210     0.3450     0.3580 hc         1 NOR       0.038700
     31 HE22        -5.6700    -0.0270    -1.3270 hc         1 NOR       0.038700
     32 HZ1         -4.4430    -2.1860    -1.1670 hc         1 NOR       0.039200
     33 HZ2         -5.6650    -2.1060     0.0990 hc         1 NOR       0.039200
     34 HC           1.2420     1.6430    -1.0430 h1         1 NOR       0.091700
     35 HH           0.6920     2.9030     1.2920 ho         1 NOR       0.469000
     36 HM           3.9840    -1.4250     0.8670 h1         1 NOR       0.065700
     37 HM11         2.7420    -2.7090    -1.6370 hc         1 NOR       0.046867
     38 HM12         3.8960    -3.4910    -0.5320 hc         1 NOR       0.046867
     39 HM13         2.2790    -3.0440     0.0480 hc         1 NOR       0.046867
     40 HM21         4.4570    -0.7450    -2.1120 hc         1 NOR       0.046867
     41 HM22         5.1960     0.0900    -0.7270 hc         1 NOR       0.046867
     42 HM23         5.6160    -1.5950    -1.0690 hc         1 NOR       0.046867
@<TRIPOS>BOND
     1     1     2 1   
     2     1    18 1   
     3     1    19 1   
     4     2     3 1   
     5     2    10 1   
     6     2    20 1   
     7     3     4 1   
     8     3    21 1   
     9     3    22 1   
    10     4     5 1   
    11     4     6 1   
    12     4    23 1   
    13     5     7 1   
    14     5    24 1   
    15     5    25 1   
    16     6     8 1   
    17     6    26 1   
    18     6    27 1   
    19     7     9 1   
    20     7    28 1   
    21     7    29 1   
    22     8     9 1   
    23     8    30 1   
    24     8    31 1   
    25     9    32 1   
    26     9    33 1   
    27    10    11 1   
    28    10    12 1   
    29    10    34 1   
    30    11    35 1   
    31    12    13 2   
    32    12    14 1   
    33    14    15 1   
    34    15    16 1   
    35    15    17 1   
    36    15    36 1   
    37    16    37 1   
    38    16    38 1   
    39    16    39 1   
    40    17    40 1   
    41    17    41 1   
    42    17    42 1   
@<TRIPOS>SUBSTRUCTURE
     1 NOR         1 TEMP              0 ****  ****    0 ROOT
