@<TRIPOS>MOLECULE
NOR
   42    42     1     0     0
SMALL
abcg2


@<TRIPOS>ATOM
      1 N            0.0910     0.6420     1.5910 n8         1 NOR      -1.004200
      2 CA          -0.0120     0.5250     0.1420 c3         1 NOR       0.135500
      3 CB          -1.3560     0.9610    -0.4450 c3         1 NOR      -0.107400
      4 CG          -2.5690     0.2220     0.1180 c6         1 NOR      -0.062700
      5 CD1         -2.5290    -1.2830    -0.1540 c6         1 NOR      -0.072900
      6 CD2         -3.8610     0.8180    -0.4430 c6         1 NOR      -0.072900
      7 CE1         -3.7690    -1.9920     0.3820 c6         1 NOR      -0.073400
      8 CE2         -5.1040     0.1180     0.0960 c6         1 NOR      -0.073400
      9 CZ          -5.0510    -1.3830    -0.1750 c6         1 NOR      -0.074400
     10 CH           1.1420     1.3120    -0.4990 c3         1 NOR       0.127300
     11 OH           1.0330     2.6960    -0.3100 oh         1 NOR      -0.650000
     12 C            2.4680     0.8140     0.0560 c          1 NOR       0.583100
     13 O1           3.1930     1.4880     0.7460 o          1 NOR      -0.492000
     14 O2           2.7100    -0.4310    -0.3040 os         1 NOR      -0.452100
     15 CM           3.9060    -1.0940     0.1710 c3         1 NOR       0.181300
     16 CM1          3.6090    -2.5780     0.1280 c3         1 NOR      -0.106100
     17 CM2          5.0910    -0.7130    -0.6950 c3         1 NOR      -0.106100
     18 HN1         -0.2810     1.5360     1.8930 hn         1 NOR       0.400000
     19 HN2         -0.4900    -0.0570     2.0350 hn         1 NOR       0.400000
     20 HA           0.1530    -0.5260    -0.1090 h1         1 NOR       0.073700
     21 HB1         -1.4880     2.0340    -0.2710 hc         1 NOR       0.053700
     22 HB2         -1.3320     0.8260    -1.5330 hc         1 NOR       0.053700
     23 HG          -2.5880     0.3680     1.2080 hc         1 NOR       0.037700
     24 HD11        -2.4500    -1.4450    -1.2370 hc         1 NOR       0.039450
     25 HD12        -1.6350    -1.7340     0.2880 hc         1 NOR       0.039450
     26 HD21        -3.9010     1.8880    -0.2200 hc         1 NOR       0.039450
     27 HD22        -3.8450     0.7310    -1.5360 hc         1 NOR       0.039450
     28 HE11        -3.7210    -3.0590     0.1490 hc         1 NOR       0.038700
     29 HE12        -3.7800    -1.9130     1.4740 hc         1 NOR       0.038700
     30 HE21        -5.1800     0.2880     1.1750 hc         1 NOR       0.038700
     31 HE22        -6.0020     0.5530    -0.3490 hc         1 NOR       0.038700
     32 HZ1         -5.0990    -1.5570    -1.2550 hc         1 NOR       0.039200
     33 HZ2         -5.9240    -1.8780     0.2580 hc         1 NOR       0.039200
     34 HC           1.1270     1.1320    -1.5790 h1         1 NOR       0.091700
     35 HH           1.4000     2.9200     0.5530 ho         1 NOR       0.469000
     36 HM           4.0870    -0.7880     1.2040 h1         1 NOR       0.065700
     37 HM11         3.4040    -2.9130    -0.8900 hc         1 NOR       0.046867
     38 HM12         4.4720    -3.1320     0.4950 hc         1 NOR       0.046867
     39 HM13         2.7560    -2.8320     0.7570 hc         1 NOR       0.046867
     40 HM21         4.9300    -1.0070    -1.7330 hc         1 NOR       0.046867
     41 HM22         5.2940     0.3570    -0.6630 hc         1 NOR       0.046867
     42 HM23         5.9830    -1.2280    -0.3350 hc         1 NOR       0.046867
@<TRIPOS>BOND
     1     1     2 1   
     2     1    18 1   
     3     1    19 1   
     4     2     3 1   
     5     2    10 1   
     6     2    20 1   
     7     3     4 1   
     8     3    21 1   
     9     3    22 1   
    10     4     5 1   
    11     4     6 1   
    12     4    23 1   
    13     5     7 1   
    14     5    24 1   
    15     5    25 1   
    16     6     8 1   
    17     6    26 1   
    18     6    27 1   
    19     7     9 1   
    20     7    28 1   
    21     7    29 1   
    22     8     9 1   
    23     8    30 1   
    24     8    31 1   
    25     9    32 1   
    26     9    33 1   
    27    10    11 1   
    28    10    12 1   
    29    10    34 1   
    30    11    35 1   
    31    12    13 2   
    32    12    14 1   
    33    14    15 1   
    34    15    16 1   
    35    15    17 1   
    36    15    36 1   
    37    16    37 1   
    38    16    38 1   
    39    16    39 1   
    40    17    40 1   
    41    17    41 1   
    42    17    42 1   
@<TRIPOS>SUBSTRUCTURE
     1 NOR         1 TEMP              0 ****  ****    0 ROOT
