@<TRIPOS>MOLECULE
NOS
   31    33     1     0     0
SMALL
No Charge or Current Charge


@<TRIPOS>ATOM
      1 N9          -0.2760    -0.0860     0.2610 na         1 NOS      -0.168500
      2 C4          -1.5300     0.1730    -0.2300 cc         1 NOS       0.104400
      3 N3          -1.9250     1.2170    -1.0430 nc         1 NOS      -0.607100
      4 C2          -3.2230     1.2070    -1.3650 cd         1 NOS       0.507800
      5 N1          -4.1140     0.2510    -0.9360 ns         1 NOS      -0.431400
      6 C6          -3.7960    -0.8060    -0.1270 c          1 NOS       0.503500
      7 O6          -4.6330    -1.6260     0.2270 o          1 NOS      -0.511000
      8 C5          -2.3540    -0.8170     0.2470 cd         1 NOS       0.128500
      9 N7          -1.6280    -1.6930     1.0460 nd         1 NOS      -0.605000
     10 C8          -0.3850    -1.2210     1.0420 cc         1 NOS       0.413400
     11 C7           3.1260     0.0820    -0.5180 c5         1 NOS       0.128300
     12 O4           1.7490     0.1510    -0.9770 os         1 NOS      -0.427000
     13 C1           0.9210     0.7330     0.0650 c5         1 NOS       0.309300
     14 C9           1.8600     0.9540     1.3050 c5         1 NOS       0.137300
     15 O2           1.5200     2.0920     2.1050 oh         1 NOS      -0.672000
     16 C3           3.2190     1.1860     0.5870 c5         1 NOS       0.100300
     17 O3           3.2910     2.5230     0.0520 oh         1 NOS      -0.687000
     18 H1          -3.6730     1.9620    -1.9970 h5         1 NOS       0.050800
     19 H2          -5.0800     0.3130    -1.2240 hn         1 NOS       0.328500
     20 H3           0.4600    -1.6510     1.5660 h5         1 NOS       0.061100
     21 H6           3.7440    -3.1720    -0.7100 ho         1 NOS       0.508000
     22 H8           0.5630     1.7100    -0.2830 h2         1 NOS       0.126700
     23 H9           1.9050     0.0550     1.9340 h1         1 NOS       0.045700
     24 H10          2.0120     2.8360     1.6760 ho         1 NOS       0.514000
     25 H11          4.0640     1.0010     1.2660 h1         1 NOS       0.052700
     26 H12          4.1610     2.6170    -0.4050 ho         1 NOS       0.508000
     27 H7           3.7990     0.3020    -1.3570 h1         1 NOS       0.085700
     28 C10          3.4480    -1.3570    -0.0060 c3         1 NOS       0.150600
     29 H4           2.6780    -1.6810     0.7050 h1         1 NOS       0.019700
     30 O5           3.5400    -2.2880    -1.0970 oh         1 NOS      -0.697000
     31 H5           4.4040    -1.3270     0.5340 h1         1 NOS       0.019700
@<TRIPOS>BOND
     1     1     2 1   
     2     1    10 1   
     3     1    13 1   
     4     2     3 1   
     5     2     8 2   
     6     3     4 2   
     7     4     5 1   
     8     4    18 1   
     9     5     6 1   
    10     5    19 1   
    11     6     7 2   
    12     6     8 1   
    13     8     9 1   
    14     9    10 2   
    15    10    20 1   
    16    11    12 1   
    17    11    16 1   
    18    11    27 1   
    19    11    28 1   
    20    12    13 1   
    21    13    14 1   
    22    13    22 1   
    23    14    15 1   
    24    14    16 1   
    25    14    23 1   
    26    15    24 1   
    27    16    17 1   
    28    16    25 1   
    29    17    26 1   
    30    21    30 1   
    31    28    29 1   
    32    28    30 1   
    33    28    31 1   
@<TRIPOS>SUBSTRUCTURE
     1 NOS         1 TEMP              0 ****  ****    0 ROOT
