@<TRIPOS>MOLECULE
NOS
   31    33     1     0     0
SMALL
abcg2


@<TRIPOS>ATOM
      1 N9          -0.2600    -0.1720     0.0160 na         1 NOS      -0.168500
      2 C4          -1.5360     0.1960    -0.2750 cc         1 NOS       0.104400
      3 N3          -1.9310     1.3250    -0.8960 nc         1 NOS      -0.607100
      4 C2          -3.2150     1.3920    -1.0360 cd         1 NOS       0.507800
      5 N1          -4.0860     0.4500    -0.6100 ns         1 NOS      -0.431400
      6 C6          -3.7520    -0.7430     0.0410 c          1 NOS       0.503500
      7 O6          -4.6060    -1.5360     0.3930 o          1 NOS      -0.511000
      8 C5          -2.3320    -0.8310     0.1950 cd         1 NOS       0.128500
      9 N7          -1.5670    -1.8140     0.7550 nd         1 NOS      -0.605000
     10 C8          -0.3440    -1.3910     0.6310 cc         1 NOS       0.413400
     11 C7           3.1750    -0.0300    -0.4670 c5         1 NOS       0.128300
     12 O4           1.8430    -0.2410    -0.9490 os         1 NOS      -0.427000
     13 C1           0.9400     0.5800    -0.2700 c5         1 NOS       0.309300
     14 C9           1.6710     1.0610     0.9820 c5         1 NOS       0.137300
     15 O2           1.0710     2.2200     1.4600 oh         1 NOS      -0.672000
     16 C3           3.0990     1.1900     0.4550 c5         1 NOS       0.100300
     17 O3           3.1910     2.4000    -0.2480 oh         1 NOS      -0.687000
     18 H1          -3.6590     2.2490    -1.5230 h5         1 NOS       0.050800
     19 H2          -5.0700     0.6190    -0.7730 hn         1 NOS       0.328500
     20 H3           0.5340    -1.9280     0.9550 h5         1 NOS       0.061100
     21 H6           4.0490    -3.1090    -0.2290 ho         1 NOS       0.508000
     22 H8           0.6260     1.4360    -0.8770 h2         1 NOS       0.126700
     23 H9           1.6610     0.2610     1.7360 h1         1 NOS       0.045700
     24 H10          1.4310     2.4200     2.3300 ho         1 NOS       0.514000
     25 H11          3.8410     1.1310     1.2610 h1         1 NOS       0.052700
     26 H12          4.0560     2.4450    -0.6670 ho         1 NOS       0.508000
     27 H7           3.8180     0.1780    -1.3290 h1         1 NOS       0.085700
     28 C10          3.7000    -1.2640     0.2360 c3         1 NOS       0.150600
     29 H4           3.1110    -1.4710     1.1410 h1         1 NOS       0.019700
     30 O5           3.6650    -2.3420    -0.6640 oh         1 NOS      -0.697000
     31 H5           4.7220    -1.0420     0.5710 h1         1 NOS       0.019700
@<TRIPOS>BOND
     1     1     2 1   
     2     1    10 1   
     3     1    13 1   
     4     2     3 1   
     5     2     8 2   
     6     3     4 2   
     7     4     5 1   
     8     4    18 1   
     9     5     6 1   
    10     5    19 1   
    11     6     7 2   
    12     6     8 1   
    13     8     9 1   
    14     9    10 2   
    15    10    20 1   
    16    11    12 1   
    17    11    16 1   
    18    11    27 1   
    19    11    28 1   
    20    12    13 1   
    21    13    14 1   
    22    13    22 1   
    23    14    15 1   
    24    14    16 1   
    25    14    23 1   
    26    15    24 1   
    27    16    17 1   
    28    16    25 1   
    29    17    26 1   
    30    21    30 1   
    31    28    29 1   
    32    28    30 1   
    33    28    31 1   
@<TRIPOS>SUBSTRUCTURE
     1 NOS         1 TEMP              0 ****  ****    0 ROOT
