@<TRIPOS>MOLECULE
NOT
   23    22     1     0     0
SMALL
No Charge or Current Charge


@<TRIPOS>ATOM
      1 N           14.4600    -0.1170    19.7210 n8         1 NOT      -1.013200
      2 CA          14.3570     1.3810    19.5780 c3         1 NOT       0.022500
      3 C           15.4780     2.2360    20.3190 c          1 NOT       0.716000
      4 OXT         16.5290     2.4410    19.7230 o          1 NOT      -0.729500
      5 CB          12.9240     1.8720    19.9320 c3         1 NOT      -0.046400
      6 CG          11.8110     1.3390    18.9940 c3         1 NOT      -0.076400
      7 C1          10.4130     1.9030    19.3340 c3         1 NOT      -0.097400
      8 C2           9.3050     1.3720    18.3990 c3         1 NOT       0.155800
      9 O           15.2640     2.6600    21.4490 o          1 NOT      -0.729500
     10 N1           8.0070     1.9550    18.7610 n2         1 NOT      -0.443200
     11 N2           7.2930     1.2850    19.5250 n1         1 NOT       0.235000
     12 N3           6.6390     0.7860    20.3100 n1         1 NOT      -0.112000
     13 HN          13.7590    -0.5600    19.1170 hn         1 NOT       0.384500
     14 HNA         15.3570    -0.4290    19.3270 hn         1 NOT       0.384500
     15 HA          14.4950     1.5820    18.5060 h1         1 NOT      -0.001300
     16 HB          12.6880     1.6000    20.9690 hc         1 NOT       0.045700
     17 HBA         12.9130     2.9680    19.8860 hc         1 NOT       0.045700
     18 HG          12.0600     1.6000    17.9570 hc         1 NOT       0.029200
     19 HGA         11.7740     0.2440    19.0490 hc         1 NOT       0.029200
     20 H1          10.1650     1.6440    20.3710 hc         1 NOT       0.045200
     21 H1A         10.4400     2.9980    19.2730 hc         1 NOT       0.045200
     22 H2           9.5580     1.6370    17.3630 h1         1 NOT       0.055200
     23 H2A          9.2800     0.2740    18.4560 h1         1 NOT       0.055200
@<TRIPOS>BOND
     1     1     2 1   
     2     1    13 1   
     3     1    14 1   
     4     2     3 1   
     5     2     5 1   
     6     2    15 1   
     7     3     4 1   
     8     3     9 1   
     9     5     6 1   
    10     5    16 1   
    11     5    17 1   
    12     6     7 1   
    13     6    18 1   
    14     6    19 1   
    15     7     8 1   
    16     7    20 1   
    17     7    21 1   
    18     8    10 1   
    19     8    22 1   
    20     8    23 1   
    21    10    11 1   
    22    11    12 3   
@<TRIPOS>SUBSTRUCTURE
     1 NOT         1 TEMP              0 ****  ****    0 ROOT
