@<TRIPOS>MOLECULE
NOT
   23    22     1     0     0
SMALL
abcg2


@<TRIPOS>ATOM
      1 N           14.3570    -0.0150    19.4820 n8         1 NOT      -1.013200
      2 CA          14.2810     1.4410    19.4600 c3         1 NOT       0.022500
      3 C           15.3760     2.0720    20.3630 c          1 NOT       0.716000
      4 OXT         16.2780     1.3150    20.7760 o          1 NOT      -0.729500
      5 CB          12.8830     1.9060    19.8640 c3         1 NOT      -0.046400
      6 CG          11.7860     1.4030    18.9340 c3         1 NOT      -0.076400
      7 C1          10.3980     1.8490    19.3760 c3         1 NOT      -0.097400
      8 C2           9.3200     1.3530    18.4240 c3         1 NOT       0.155800
      9 O           15.2800     3.2970    20.5740 o          1 NOT      -0.729500
     10 N1           7.9700     1.7930    18.8050 n2         1 NOT      -0.443200
     11 N2           7.4690     1.2350    19.7620 n1         1 NOT       0.235000
     12 N3           6.9210     0.7760    20.6310 n1         1 NOT      -0.112000
     13 HN          14.1470    -0.3940    18.5690 hn         1 NOT       0.384500
     14 HNA         15.3140    -0.2670    19.6950 hn         1 NOT       0.384500
     15 HA          14.4730     1.8390    18.4480 h1         1 NOT      -0.001300
     16 HB          12.6780     1.5620    20.8840 hc         1 NOT       0.045700
     17 HBA         12.8540     2.9970    19.8870 hc         1 NOT       0.045700
     18 HG          11.9770     1.7620    17.9170 hc         1 NOT       0.029200
     19 HGA         11.8120     0.3100    18.8850 hc         1 NOT       0.029200
     20 H1          10.2010     1.4730    20.3850 hc         1 NOT       0.045200
     21 H1A         10.3550     2.9410    19.4310 hc         1 NOT       0.045200
     22 H2           9.4830     1.7590    17.4270 h1         1 NOT       0.055200
     23 H2A          9.3570     0.2630    18.3400 h1         1 NOT       0.055200
@<TRIPOS>BOND
     1     1     2 1   
     2     1    13 1   
     3     1    14 1   
     4     2     3 1   
     5     2     5 1   
     6     2    15 1   
     7     3     4 1   
     8     3     9 1   
     9     5     6 1   
    10     5    16 1   
    11     5    17 1   
    12     6     7 1   
    13     6    18 1   
    14     6    19 1   
    15     7     8 1   
    16     7    20 1   
    17     7    21 1   
    18     8    10 1   
    19     8    22 1   
    20     8    23 1   
    21    10    11 1   
    22    11    12 3   
@<TRIPOS>SUBSTRUCTURE
     1 NOT         1 TEMP              0 ****  ****    0 ROOT
