@<TRIPOS>MOLECULE
NOV
   80    83     1     0     0
SMALL
bcc


@<TRIPOS>ATOM
      1 C1           8.7170    -2.0990    -2.3310 c3         1 NOV       0.114700
      2 O1           7.4040    -1.6470    -2.0940 os         1 NOV      -0.394600
      3 N1           8.4840     2.1520     2.0710 nt         1 NOV      -0.669000
      4 C12          8.5430     0.9260     1.5340 c          1 NOV       0.774100
      5 O4           9.3000     0.0450     1.8790 o          1 NOV      -0.580000
      6 O5           7.6550     0.8140     0.5290 os         1 NOV      -0.450900
      7 C27          7.3290    -0.3450    -1.5670 c6         1 NOV       0.116100
      8 C28          7.4100    -0.4650    -0.0350 c6         1 NOV       0.144100
      9 C29          6.1150    -1.0280     0.5380 c6         1 NOV       0.114100
     10 O6           6.1910    -0.9690     1.9350 oh         1 NOV      -0.583800
     11 C30          4.9330    -0.2330    -0.0040 c6         1 NOV       0.320900
     12 O7           4.9090    -0.2750    -1.3960 os         1 NOV      -0.425600
     13 C31          6.0260     0.3170    -2.0650 c6         1 NOV       0.185800
     14 C23          5.8060     0.0330    -3.5460 c3         1 NOV      -0.100100
     15 C26          6.0500     1.8350    -1.8710 c3         1 NOV      -0.100100
     16 O8           3.7730    -0.8780     0.4400 os         1 NOV      -0.317900
     17 C3           2.5750    -0.2620     0.3760 ca         1 NOV       0.206100
     18 C4           1.5100    -1.0120     0.8820 ca         1 NOV      -0.138300
     19 C2           1.7490    -2.3900     1.4240 c3         1 NOV      -0.027800
     20 C5           0.2510    -0.4210     0.8500 ca         1 NOV       0.225100
     21 C9           0.0410     0.8640     0.3430 ca         1 NOV      -0.200800
     22 C10          1.1310     1.5750    -0.1560 ca         1 NOV      -0.018000
     23 C11          2.3900     1.0200    -0.1500 ca         1 NOV      -0.232000
     24 O10         -0.7820    -1.1460     1.3350 os         1 NOV      -0.338200
     25 C6          -2.0720    -0.7120     1.3590 c          1 NOV       0.771800
     26 O11         -2.9010    -1.4650     1.8050 o          1 NOV      -0.563500
     27 C7          -2.3190     0.6090     0.8510 cc         1 NOV      -0.264600
     28 C8          -1.3040     1.3700     0.3540 cd         1 NOV       0.284900
     29 O9          -1.4880     2.5800    -0.1350 oh         1 NOV      -0.470100
     30 N2          -3.6370     1.1000     0.8370 ns         1 NOV      -0.488100
     31 C13         -4.5190     0.6540    -0.1110 c          1 NOV       0.684700
     32 O2          -4.1580    -0.0720    -1.0190 o          1 NOV      -0.566100
     33 C14         -5.9180     1.1270     0.0190 ca         1 NOV      -0.189600
     34 C15         -6.9120     0.4530    -0.6920 ca         1 NOV      -0.033000
     35 C16         -8.2420     0.8310    -0.6480 ca         1 NOV      -0.113300
     36 C17         -8.5860     1.9410     0.1360 ca         1 NOV       0.167100
     37 O3          -9.8790     2.2990     0.1700 oh         1 NOV      -0.486100
     38 C18         -7.6060     2.6370     0.8390 ca         1 NOV      -0.239000
     39 C19         -6.2850     2.2330     0.7820 ca         1 NOV      -0.061000
     40 C20         -9.2890     0.0540    -1.4070 c3         1 NOV       0.020100
     41 C21        -10.0360    -0.8890    -0.5060 c2         1 NOV      -0.171200
     42 C22        -10.0260    -2.2240    -0.5390 c2         1 NOV      -0.109400
     43 C24         -9.2570    -3.0580    -1.5190 c3         1 NOV      -0.056400
     44 C25        -10.8220    -3.0210     0.4550 c3         1 NOV      -0.056400
     45 H11A         9.2370    -1.4620    -3.0530 h1         1 NOV       0.036700
     46 H12          9.3210    -2.1420    -1.4180 h1         1 NOV       0.036700
     47 H13          8.6500    -3.1060    -2.7390 h1         1 NOV       0.036700
     48 HN11         9.1230     2.4050     2.8040 hn         1 NOV       0.329500
     49 HN12         7.8320     2.8460     1.7490 hn         1 NOV       0.329500
     50 H27          8.1750     0.2640    -1.9190 h1         1 NOV       0.060700
     51 H28          8.2340    -1.1370     0.2200 h1         1 NOV       0.095700
     52 H29          6.0160    -2.0610     0.1760 h1         1 NOV       0.077700
     53 HO6          5.4420    -1.4470     2.3060 ho         1 NOV       0.422000
     54 H30          4.9610     0.7970     0.3820 h2         1 NOV       0.051700
     55 H231         5.6280    -1.0220    -3.7410 hc         1 NOV       0.049700
     56 H232         4.9490     0.6010    -3.9080 hc         1 NOV       0.049700
     57 H233         6.6760     0.3450    -4.1240 hc         1 NOV       0.049700
     58 H261         6.8460     2.2690    -2.4760 hc         1 NOV       0.049700
     59 H262         5.1060     2.2620    -2.2140 hc         1 NOV       0.049700
     60 H263         6.2130     2.1600    -0.8470 hc         1 NOV       0.049700
     61 H21A         2.4460    -2.3680     2.2630 hc         1 NOV       0.050700
     62 H22          0.8330    -2.8600     1.7700 hc         1 NOV       0.050700
     63 H23          2.1840    -3.0380     0.6620 hc         1 NOV       0.050700
     64 H10          0.9930     2.5670    -0.5620 ha         1 NOV       0.149000
     65 H11          3.2090     1.5890    -0.5640 ha         1 NOV       0.150000
     66 HO9         -2.4250     2.8240    -0.0720 ho         1 NOV       0.455000
     67 HN2         -4.0030     1.4670     1.7040 hn         1 NOV       0.318500
     68 H15         -6.6390    -0.4030    -1.2980 ha         1 NOV       0.159000
     69 HO3        -10.0020     3.0740     0.7310 ho         1 NOV       0.427000
     70 H18         -7.8750     3.5080     1.4250 ha         1 NOV       0.133000
     71 H19         -5.5530     2.8180     1.3240 ha         1 NOV       0.126000
     72 H201        -9.9950     0.7430    -1.8780 hc         1 NOV       0.056200
     73 H202        -8.8010    -0.4830    -2.2210 hc         1 NOV       0.056200
     74 H21        -10.6370    -0.4090     0.2620 ha         1 NOV       0.123000
     75 H241        -8.6740    -2.4780    -2.2300 hc         1 NOV       0.039367
     76 H242        -8.5710    -3.7280    -0.9940 hc         1 NOV       0.039367
     77 H243        -9.9350    -3.6970    -2.0910 hc         1 NOV       0.039367
     78 H251       -11.5270    -3.6860    -0.0510 hc         1 NOV       0.039367
     79 H252       -10.1680    -3.6600     1.0520 hc         1 NOV       0.039367
     80 H253       -11.3860    -2.3850     1.1360 hc         1 NOV       0.039367
@<TRIPOS>BOND
     1     1     2 1   
     2     1    45 1   
     3     1    46 1   
     4     1    47 1   
     5     2     7 1   
     6     3     4 1   
     7     3    48 1   
     8     3    49 1   
     9     4     5 2   
    10     4     6 1   
    11     6     8 1   
    12     7     8 1   
    13     7    13 1   
    14     7    50 1   
    15     8     9 1   
    16     8    51 1   
    17     9    10 1   
    18     9    11 1   
    19     9    52 1   
    20    10    53 1   
    21    11    12 1   
    22    11    16 1   
    23    11    54 1   
    24    12    13 1   
    25    13    14 1   
    26    13    15 1   
    27    14    55 1   
    28    14    56 1   
    29    14    57 1   
    30    15    58 1   
    31    15    59 1   
    32    15    60 1   
    33    16    17 1   
    34    17    18 ar  
    35    17    23 ar  
    36    18    19 1   
    37    18    20 ar  
    38    19    61 1   
    39    19    62 1   
    40    19    63 1   
    41    20    21 ar  
    42    20    24 1   
    43    21    22 ar  
    44    21    28 1   
    45    22    23 ar  
    46    22    64 1   
    47    23    65 1   
    48    24    25 1   
    49    25    26 2   
    50    25    27 1   
    51    27    28 2   
    52    27    30 1   
    53    28    29 1   
    54    29    66 1   
    55    30    31 1   
    56    30    67 1   
    57    31    32 2   
    58    31    33 1   
    59    33    34 ar  
    60    33    39 ar  
    61    34    35 ar  
    62    34    68 1   
    63    35    36 ar  
    64    35    40 1   
    65    36    37 1   
    66    36    38 ar  
    67    37    69 1   
    68    38    39 ar  
    69    38    70 1   
    70    39    71 1   
    71    40    41 1   
    72    40    72 1   
    73    40    73 1   
    74    41    42 2   
    75    41    74 1   
    76    42    43 1   
    77    42    44 1   
    78    43    75 1   
    79    43    76 1   
    80    43    77 1   
    81    44    78 1   
    82    44    79 1   
    83    44    80 1   
@<TRIPOS>SUBSTRUCTURE
     1 NOV         1 TEMP              0 ****  ****    0 ROOT
