@<TRIPOS>MOLECULE
NOV
   80    83     1     0     0
SMALL
No Charge or Current Charge


@<TRIPOS>ATOM
      1 C1           9.1730    -2.0060    -2.1190 c3         1 NOV       0.137900
      2 O1           7.8550    -1.4260    -2.1740 os         1 NOV      -0.441000
      3 N1           8.6210     2.2540     2.3400 nt         1 NOV      -0.602000
      4 C12          8.6040     0.9890     1.9020 c          1 NOV       0.658100
      5 O4           9.2330     0.0880     2.4260 o          1 NOV      -0.531000
      6 O5           7.9160     0.9230     0.7310 os         1 NOV      -0.474100
      7 C27          7.6360    -0.1600    -1.4900 c6         1 NOV       0.139300
      8 C28          7.6850    -0.3460     0.0650 c6         1 NOV       0.167300
      9 C29          6.3860    -1.0590     0.5670 c6         1 NOV       0.137300
     10 O6           6.3670    -1.2320     2.0080 oh         1 NOV      -0.706000
     11 C30          5.1330    -0.2730     0.0630 c6         1 NOV       0.367300
     12 O7           5.1500    -0.2020    -1.3800 os         1 NOV      -0.472000
     13 C31          6.2790     0.4980    -1.9600 c6         1 NOV       0.209000
     14 C23          6.0880     0.3780    -3.5010 c3         1 NOV      -0.100100
     15 C26          6.1600     2.0200    -1.6180 c3         1 NOV      -0.100100
     16 O8           3.9360    -0.9530     0.4850 os         1 NOV      -0.341100
     17 C3           2.6800    -0.4070     0.2870 ca         1 NOV       0.206100
     18 C4           1.5520    -1.2040     0.5820 ca         1 NOV      -0.138300
     19 C2           1.7370    -2.6390     1.0880 c3         1 NOV      -0.027800
     20 C5           0.2590    -0.6610     0.4170 ca         1 NOV       0.225100
     21 C9           0.0790     0.6510    -0.0430 ca         1 NOV      -0.200800
     22 C10          1.2080     1.4400    -0.3380 ca         1 NOV       0.000000
     23 C11          2.4980     0.9160    -0.1690 ca         1 NOV      -0.214000
     24 O10         -0.8360    -1.4270     0.7290 os         1 NOV      -0.338200
     25 C6          -2.1400    -1.0240     0.6210 c          1 NOV       0.696300
     26 O11         -3.0340    -1.7460     1.0420 o          1 NOV      -0.488000
     27 C7          -2.3700     0.3600     0.0920 cc         1 NOV      -0.264600
     28 C8          -1.2850     1.1510    -0.2050 cd         1 NOV       0.284900
     29 O9          -1.4390     2.3850    -0.7220 oh         1 NOV      -0.509100
     30 N2          -3.6950     0.8540    -0.0220 ns         1 NOV      -0.421100
     31 C13         -4.8290     0.1900    -0.4780 c          1 NOV       0.617700
     32 O2          -4.7550    -0.8720    -1.0810 o          1 NOV      -0.566100
     33 C14         -6.1580     0.8660    -0.2120 ca         1 NOV      -0.189600
     34 C15         -7.3380     0.2940    -0.7410 ca         1 NOV      -0.015000
     35 C16         -8.5990     0.8840    -0.5220 ca         1 NOV      -0.113300
     36 C17         -8.6830     2.0620     0.2490 ca         1 NOV       0.167100
     37 O3          -9.8870     2.6570     0.4940 oh         1 NOV      -0.525100
     38 C18         -7.5210     2.6360     0.7830 ca         1 NOV      -0.221000
     39 C19         -6.2660     2.0470     0.5580 ca         1 NOV      -0.043000
     40 C20         -9.8420     0.2230    -1.1140 c3         1 NOV       0.020100
     41 C21        -10.4860    -0.7420    -0.1330 c2         1 NOV      -0.221200
     42 C22        -10.4250    -2.0880    -0.1190 c2         1 NOV      -0.109400
     43 C24         -9.6480    -2.9570    -1.0980 c3         1 NOV      -0.056400
     44 C25        -11.1520    -2.9170     0.9240 c3         1 NOV      -0.056400
     45 H11A         9.9300    -1.2890    -2.4630 h1         1 NOV       0.036700
     46 H12          9.4300    -2.3280    -1.1030 h1         1 NOV       0.036700
     47 H13          9.2230    -2.8890    -2.7690 h1         1 NOV       0.036700
     48 HN11         9.1320     2.4830     3.1790 hn         1 NOV       0.329500
     49 HN12         8.1150     2.9590     1.8290 hn         1 NOV       0.329500
     50 H27          8.4530     0.5150    -1.7840 h1         1 NOV       0.060700
     51 H28          8.5370    -0.9990     0.2940 h1         1 NOV       0.095700
     52 H29          6.3530    -2.0480     0.0840 h1         1 NOV       0.077700
     53 HO6          5.4810    -1.6020     2.2370 ho         1 NOV       0.521000
     54 H30          5.1460     0.7340     0.5040 h2         1 NOV       0.051700
     55 H231         6.0230    -0.6690    -3.8210 hc         1 NOV       0.049700
     56 H232         5.1670     0.8720    -3.8320 hc         1 NOV       0.049700
     57 H233         6.9240     0.8380    -4.0420 hc         1 NOV       0.049700
     58 H261         6.9550     2.5920    -2.1110 hc         1 NOV       0.049700
     59 H262         5.2040     2.4300    -1.9640 hc         1 NOV       0.049700
     60 H263         6.2310     2.2360    -0.5480 hc         1 NOV       0.049700
     61 H21A         1.9180    -2.6500     2.1690 hc         1 NOV       0.050700
     62 H22          0.8620    -3.2680     0.8920 hc         1 NOV       0.050700
     63 H23          2.5870    -3.1330     0.6030 hc         1 NOV       0.050700
     64 H10          1.0970     2.4630    -0.6940 ha         1 NOV       0.131000
     65 H11          3.3420     1.5570    -0.3990 ha         1 NOV       0.132000
     66 HO9         -2.3560     2.4210    -1.0590 ho         1 NOV       0.494000
     67 HN2         -3.8860     1.7990     0.2930 hn         1 NOV       0.318500
     68 H15         -7.2790    -0.6190    -1.3300 ha         1 NOV       0.141000
     69 HO3         -9.7300     3.4520     1.0460 ho         1 NOV       0.466000
     70 H18         -7.5820     3.5420     1.3820 ha         1 NOV       0.115000
     71 H19         -5.3920     2.5190     1.0010 ha         1 NOV       0.108000
     72 H201       -10.5760     0.9840    -1.4070 hc         1 NOV       0.056200
     73 H202        -9.5870    -0.2750    -2.0550 hc         1 NOV       0.056200
     74 H21        -11.0730    -0.2260     0.6290 ha         1 NOV       0.173000
     75 H241        -9.0660    -2.3800    -1.8230 hc         1 NOV       0.039367
     76 H242        -8.9390    -3.6040    -0.5660 hc         1 NOV       0.039367
     77 H243       -10.3250    -3.6070    -1.6660 hc         1 NOV       0.039367
     78 H251       -11.8680    -3.6030     0.4550 hc         1 NOV       0.039367
     79 H252       -10.4480    -3.5180     1.5120 hc         1 NOV       0.039367
     80 H253       -11.7120    -2.2890     1.6270 hc         1 NOV       0.039367
@<TRIPOS>BOND
     1     1     2 1   
     2     1    45 1   
     3     1    46 1   
     4     1    47 1   
     5     2     7 1   
     6     3     4 1   
     7     3    48 1   
     8     3    49 1   
     9     4     5 2   
    10     4     6 1   
    11     6     8 1   
    12     7     8 1   
    13     7    13 1   
    14     7    50 1   
    15     8     9 1   
    16     8    51 1   
    17     9    10 1   
    18     9    11 1   
    19     9    52 1   
    20    10    53 1   
    21    11    12 1   
    22    11    16 1   
    23    11    54 1   
    24    12    13 1   
    25    13    14 1   
    26    13    15 1   
    27    14    55 1   
    28    14    56 1   
    29    14    57 1   
    30    15    58 1   
    31    15    59 1   
    32    15    60 1   
    33    16    17 1   
    34    17    18 ar  
    35    17    23 ar  
    36    18    19 1   
    37    18    20 ar  
    38    19    61 1   
    39    19    62 1   
    40    19    63 1   
    41    20    21 ar  
    42    20    24 1   
    43    21    22 ar  
    44    21    28 1   
    45    22    23 ar  
    46    22    64 1   
    47    23    65 1   
    48    24    25 1   
    49    25    26 2   
    50    25    27 1   
    51    27    28 2   
    52    27    30 1   
    53    28    29 1   
    54    29    66 1   
    55    30    31 1   
    56    30    67 1   
    57    31    32 2   
    58    31    33 1   
    59    33    34 ar  
    60    33    39 ar  
    61    34    35 ar  
    62    34    68 1   
    63    35    36 ar  
    64    35    40 1   
    65    36    37 1   
    66    36    38 ar  
    67    37    69 1   
    68    38    39 ar  
    69    38    70 1   
    70    39    71 1   
    71    40    41 1   
    72    40    72 1   
    73    40    73 1   
    74    41    42 2   
    75    41    74 1   
    76    42    43 1   
    77    42    44 1   
    78    43    75 1   
    79    43    76 1   
    80    43    77 1   
    81    44    78 1   
    82    44    79 1   
    83    44    80 1   
@<TRIPOS>SUBSTRUCTURE
     1 NOV         1 TEMP              0 ****  ****    0 ROOT
