@<TRIPOS>MOLECULE
NOW
   57    58     1     0     0
SMALL
No Charge or Current Charge


@<TRIPOS>ATOM
      1 O18         -0.3870     0.2850     1.9830 o          1 NOW      -0.614100
      2 C17          0.1330    -0.0770     0.9380 c          1 NOW       0.644700
      3 C19          1.5950    -0.2370     0.7610 cc         1 NOW      -0.217600
      4 N23          2.6320    -0.0100     1.6630 na         1 NOW       0.169800
      5 C24          2.5010     0.4570     3.0510 c3         1 NOW       0.074900
      6 N22          3.8860    -0.2580     1.1410 nc         1 NOW      -0.511800
      7 C21          3.6370    -0.6410    -0.0990 cd         1 NOW       0.256300
      8 C25          4.7450    -1.0220    -1.0820 c3         1 NOW      -0.069300
      9 C28          6.1620    -0.9160    -0.4460 c3         1 NOW      -0.079767
     10 C27          4.5240    -2.4830    -1.5530 c3         1 NOW      -0.079767
     11 C26          4.6820    -0.0720    -2.3070 c3         1 NOW      -0.079767
     12 C20          2.2520    -0.6420    -0.3740 cd         1 NOW      -0.191000
     13 N16         -0.6010    -0.3810    -0.1850 ns         1 NOW      -0.477900
     14 C9          -2.0580    -0.1660    -0.3360 c3         1 NOW       0.042700
     15 C10         -2.7010    -1.3380    -1.1330 c          1 NOW       0.594100
     16 N12         -4.0780    -1.4050    -1.0760 ns         1 NOW      -0.500900
     17 C13         -4.8910    -2.4420    -1.7450 c3         1 NOW       0.041700
     18 C14         -4.7590    -3.8100    -1.0920 c2         1 NOW       0.396200
     19 N15         -5.3510    -4.1240     0.0090 n2         1 NOW      -0.750100
     20 O11         -2.0470    -2.1550    -1.7700 o          1 NOW      -0.583100
     21 C8          -2.3470     1.2000    -1.0140 c3         1 NOW      -0.042100
     22 C5          -1.6600     2.3760    -0.3260 ca         1 NOW      -0.091300
     23 C3          -0.4450     2.8830    -0.8270 ca         1 NOW      -0.116000
     24 C1           0.1970     3.9500    -0.1770 ca         1 NOW      -0.102000
     25 C6          -2.2260     2.9510     0.8290 ca         1 NOW      -0.106000
     26 C4          -1.5890     4.0230     1.4810 ca         1 NOW      -0.068300
     27 C7          -2.2030     4.6310     2.7330 c3         1 NOW      -0.048800
     28 C2          -0.3730     4.5190     0.9740 ca         1 NOW      -0.105000
     29 H24          1.9060    -0.2640     3.6240 h1         1 NOW       0.063367
     30 H24A         3.4910     0.5550     3.5120 h1         1 NOW       0.063367
     31 H24B         2.0000     1.4320     3.0610 h1         1 NOW       0.063367
     32 H28          6.2570    -1.5840     0.4190 hc         1 NOW       0.036256
     33 H28A         6.9380    -1.1950    -1.1700 hc         1 NOW       0.036256
     34 H28B         6.3700     0.1080    -0.1130 hc         1 NOW       0.036256
     35 H27          3.5560    -2.5960    -2.0570 hc         1 NOW       0.036256
     36 H27A         5.3060    -2.7930    -2.2570 hc         1 NOW       0.036256
     37 H27B         4.5420    -3.1730    -0.7000 hc         1 NOW       0.036256
     38 H26          4.8140     0.9720    -1.9960 hc         1 NOW       0.036256
     39 H26A         5.4680    -0.3120    -3.0330 hc         1 NOW       0.036256
     40 H26B         3.7160    -0.1500    -2.8210 hc         1 NOW       0.036256
     41 H20          1.8090    -0.9160    -1.3250 ha         1 NOW       0.145000
     42 HN16        -0.0830    -0.7250    -0.9820 hn         1 NOW       0.337500
     43 H9          -2.5200    -0.1680     0.6600 h1         1 NOW       0.061700
     44 HN12        -4.5510    -0.7070    -0.5110 hn         1 NOW       0.317500
     45 H13         -5.9440    -2.1330    -1.7280 h1         1 NOW       0.075700
     46 H13A        -4.5820    -2.5140    -2.7960 h1         1 NOW       0.075700
     47 H14         -4.1310    -4.5390    -1.5970 h4         1 NOW      -0.015200
     48 HN15        -5.1110    -5.0970     0.2540 hn         1 NOW       0.379400
     49 H8          -2.0310     1.1480    -2.0630 hc         1 NOW       0.067700
     50 H8A         -3.4310     1.3700    -1.0380 hc         1 NOW       0.067700
     51 H3           0.0070     2.4450    -1.7140 ha         1 NOW       0.114000
     52 H1           1.1380     4.3350    -0.5650 ha         1 NOW       0.116000
     53 H6          -3.1600     2.5570     1.2240 ha         1 NOW       0.109000
     54 H7          -1.8710     4.0950     3.6300 hc         1 NOW       0.044367
     55 H7A         -1.9200     5.6840     2.8480 hc         1 NOW       0.044367
     56 H7B         -3.2980     4.5860     2.7020 hc         1 NOW       0.044367
     57 H2           0.1320     5.3430     1.4730 ha         1 NOW       0.115000
@<TRIPOS>BOND
     1     1     2 2   
     2     2     3 1   
     3     2    13 1   
     4     3     4 1   
     5     3    12 2   
     6     4     5 1   
     7     4     6 1   
     8     5    29 1   
     9     5    30 1   
    10     5    31 1   
    11     6     7 2   
    12     7     8 1   
    13     7    12 1   
    14     8     9 1   
    15     8    10 1   
    16     8    11 1   
    17     9    32 1   
    18     9    33 1   
    19     9    34 1   
    20    10    35 1   
    21    10    36 1   
    22    10    37 1   
    23    11    38 1   
    24    11    39 1   
    25    11    40 1   
    26    12    41 1   
    27    13    14 1   
    28    13    42 1   
    29    14    15 1   
    30    14    21 1   
    31    14    43 1   
    32    15    16 1   
    33    15    20 2   
    34    16    17 1   
    35    16    44 1   
    36    17    18 1   
    37    17    45 1   
    38    17    46 1   
    39    18    19 2   
    40    18    47 1   
    41    19    48 1   
    42    21    22 1   
    43    21    49 1   
    44    21    50 1   
    45    22    23 ar  
    46    22    25 ar  
    47    23    24 ar  
    48    23    51 1   
    49    24    28 ar  
    50    24    52 1   
    51    25    26 ar  
    52    25    53 1   
    53    26    27 1   
    54    26    28 ar  
    55    27    54 1   
    56    27    55 1   
    57    27    56 1   
    58    28    57 1   
@<TRIPOS>SUBSTRUCTURE
     1 NOW         1 TEMP              0 ****  ****    0 ROOT
