@<TRIPOS>MOLECULE
NOW
   57    58     1     0     0
SMALL
abcg2


@<TRIPOS>ATOM
      1 O18         -0.7000    -1.5180     1.3530 o          1 NOW      -0.614100
      2 C17         -0.0260    -0.8250     0.6030 c          1 NOW       0.644700
      3 C19          1.4460    -0.9030     0.5490 cc         1 NOW      -0.217600
      4 N23          2.2110    -1.3180     1.5820 na         1 NOW       0.169800
      5 C24          1.8080    -1.7290     2.9100 c3         1 NOW       0.074900
      6 N22          3.4970    -1.3360     1.2590 nc         1 NOW      -0.511800
      7 C21          3.5840    -0.9380     0.0000 cd         1 NOW       0.256300
      8 C25          4.8960    -0.8580    -0.7340 c3         1 NOW      -0.069300
      9 C28          6.0680    -1.1630     0.1980 c3         1 NOW      -0.079767
     10 C27          4.8810    -1.8810    -1.8770 c3         1 NOW      -0.079767
     11 C26          5.0670     0.5500    -1.3180 c3         1 NOW      -0.079767
     12 C20          2.3050    -0.6420    -0.4980 cd         1 NOW      -0.191000
     13 N16         -0.5720     0.0500    -0.2580 ns         1 NOW      -0.477900
     14 C9          -1.9980     0.1970    -0.3580 c3         1 NOW       0.042700
     15 C10         -2.6270    -1.1160    -0.8270 c          1 NOW       0.594100
     16 N12         -3.8570    -1.3430    -0.3410 ns         1 NOW      -0.500900
     17 C13         -4.6290    -2.5180    -0.6720 c3         1 NOW       0.041700
     18 C14         -4.2930    -3.6720     0.2290 c2         1 NOW       0.396200
     19 N15         -5.1980    -4.3470     0.7940 n2         1 NOW      -0.750100
     20 O11         -2.0700    -1.8450    -1.6280 o          1 NOW      -0.583100
     21 C8          -2.3440     1.3070    -1.3620 c3         1 NOW      -0.042100
     22 C5          -1.7420     2.6290    -0.9680 ca         1 NOW      -0.091300
     23 C3          -0.6300     3.1400    -1.6300 ca         1 NOW      -0.116000
     24 C1          -0.0710     4.3460    -1.2260 ca         1 NOW      -0.102000
     25 C6          -2.2800     3.3480     0.0970 ca         1 NOW      -0.106000
     26 C4          -1.7330     4.5570     0.5150 ca         1 NOW      -0.068300
     27 C7          -2.3190     5.3000     1.6800 c3         1 NOW      -0.048800
     28 C2          -0.6170     5.0480    -0.1630 ca         1 NOW      -0.105000
     29 H24          1.3690    -2.7240     2.8970 h1         1 NOW       0.063367
     30 H24A         2.6980    -1.7370     3.5320 h1         1 NOW       0.063367
     31 H24B         1.0900    -1.0300     3.3290 h1         1 NOW       0.063367
     32 H28          5.9950    -2.1620     0.6280 hc         1 NOW       0.036256
     33 H28A         7.0040    -1.1100    -0.3600 hc         1 NOW       0.036256
     34 H28B         6.1260    -0.4480     1.0200 hc         1 NOW       0.036256
     35 H27          4.0480    -1.7090    -2.5610 hc         1 NOW       0.036256
     36 H27A         5.8040    -1.8210    -2.4570 hc         1 NOW       0.036256
     37 H27B         4.7910    -2.8980    -1.4920 hc         1 NOW       0.036256
     38 H26          5.0670     1.3080    -0.5330 hc         1 NOW       0.036256
     39 H26A         6.0150     0.6220    -1.8570 hc         1 NOW       0.036256
     40 H26B         4.2710     0.7950    -2.0220 hc         1 NOW       0.036256
     41 H20          2.0390    -0.3020    -1.4870 ha         1 NOW       0.145000
     42 HN16         0.0210     0.7140    -0.7320 hn         1 NOW       0.337500
     43 H9          -2.4130     0.4700     0.6190 h1         1 NOW       0.061700
     44 HN12        -4.2110    -0.7500     0.3930 hn         1 NOW       0.317500
     45 H13         -5.6900    -2.2850    -0.5920 h1         1 NOW       0.075700
     46 H13A        -4.4270    -2.7970    -1.7080 h1         1 NOW       0.075700
     47 H14         -3.2250    -3.8760     0.3440 h4         1 NOW      -0.015200
     48 HN15        -4.7900    -5.0950     1.3470 hn         1 NOW       0.379400
     49 H8          -2.0030     1.0140    -2.3580 hc         1 NOW       0.067700
     50 H8A         -3.4310     1.3900    -1.4090 hc         1 NOW       0.067700
     51 H3          -0.2090     2.6040    -2.4730 ha         1 NOW       0.114000
     52 H1           0.7910     4.7420    -1.7480 ha         1 NOW       0.116000
     53 H6          -3.1520     2.9580     0.6140 ha         1 NOW       0.109000
     54 H7          -1.9020     4.9370     2.6210 hc         1 NOW       0.044367
     55 H7A         -2.1090     6.3670     1.6230 hc         1 NOW       0.044367
     56 H7B         -3.4000     5.1700     1.7360 hc         1 NOW       0.044367
     57 H2          -0.1780     5.9910     0.1400 ha         1 NOW       0.115000
@<TRIPOS>BOND
     1     1     2 2   
     2     2     3 1   
     3     2    13 1   
     4     3     4 1   
     5     3    12 2   
     6     4     5 1   
     7     4     6 1   
     8     5    29 1   
     9     5    30 1   
    10     5    31 1   
    11     6     7 2   
    12     7     8 1   
    13     7    12 1   
    14     8     9 1   
    15     8    10 1   
    16     8    11 1   
    17     9    32 1   
    18     9    33 1   
    19     9    34 1   
    20    10    35 1   
    21    10    36 1   
    22    10    37 1   
    23    11    38 1   
    24    11    39 1   
    25    11    40 1   
    26    12    41 1   
    27    13    14 1   
    28    13    42 1   
    29    14    15 1   
    30    14    21 1   
    31    14    43 1   
    32    15    16 1   
    33    15    20 2   
    34    16    17 1   
    35    16    44 1   
    36    17    18 1   
    37    17    45 1   
    38    17    46 1   
    39    18    19 2   
    40    18    47 1   
    41    19    48 1   
    42    21    22 1   
    43    21    49 1   
    44    21    50 1   
    45    22    23 ar  
    46    22    25 ar  
    47    23    24 ar  
    48    23    51 1   
    49    24    28 ar  
    50    24    52 1   
    51    25    26 ar  
    52    25    53 1   
    53    26    27 1   
    54    26    28 ar  
    55    27    54 1   
    56    27    55 1   
    57    27    56 1   
    58    28    57 1   
@<TRIPOS>SUBSTRUCTURE
     1 NOW         1 TEMP              0 ****  ****    0 ROOT
