@<TRIPOS>MOLECULE
NOX
   49    50     1     0     0
SMALL
No Charge or Current Charge


@<TRIPOS>ATOM
      1 N1          30.0640   -13.1720    -1.8570 n4         1 NOX      -0.160000
      2 C2          30.9800   -12.5630    -0.7520 c6         1 NOX       0.104600
      3 C3          30.3050   -11.4370     0.0690 c6         1 NOX      -0.079400
      4 C4          28.9830   -11.9340     0.7020 c6         1 NOX      -0.075400
      5 C5          28.0300   -12.5030    -0.3770 c6         1 NOX      -0.079400
      6 C6          28.7270   -13.6190    -1.1930 c6         1 NOX       0.104600
      7 O7          29.8090   -12.2170    -2.8380 o          1 NOX      -0.664000
      8 C8          30.7590   -14.3770    -2.5190 c3         1 NOX       0.092600
      9 C9          31.1530   -15.5850    -1.6400 c3         1 NOX      -0.038100
     10 C10         31.8200   -16.6740    -2.4660 ca         1 NOX      -0.139300
     11 C11         33.2220   -16.7280    -2.5740 ca         1 NOX      -0.075000
     12 C12         33.8390   -17.7290    -3.3440 ca         1 NOX      -0.155000
     13 C13         33.0600   -18.6950    -4.0180 ca         1 NOX       0.006000
     14 C14         31.6580   -18.6300    -3.9110 ca         1 NOX      -0.155000
     15 C15         31.0410   -17.6290    -3.1420 ca         1 NOX      -0.075000
     16 N16         33.6110   -19.7340    -4.8170 ns         1 NOX      -0.157000
     17 C17         34.9180   -20.1360    -5.0590 c          1 NOX       0.601100
     18 O18         35.9070   -19.6290    -4.5420 o          1 NOX      -0.581100
     19 C19         35.0410   -21.3300    -6.0180 c3         1 NOX      -0.153400
     20 C20         35.5870   -20.8980    -7.4000 c3         1 NOX      -0.047400
     21 C21         35.7150   -22.0760    -8.3970 c3         1 NOX      -0.204400
     22 C22         36.2640   -21.5750    -9.7440 c          1 NOX       0.711000
     23 O23         37.4760   -21.5430    -9.8960 o          1 NOX      -0.738500
     24 O24         35.4670   -21.1790   -10.5810 o          1 NOX      -0.738500
     25 H21         31.2560   -13.3900    -0.0920 hx         1 NOX       0.058450
     26 H22         31.8850   -12.2070    -1.2500 hx         1 NOX       0.058450
     27 H31         30.9910   -11.0890     0.8530 hc         1 NOX       0.063200
     28 H32         30.1080   -10.5750    -0.5820 hc         1 NOX       0.063200
     29 H41         29.2000   -12.7100     1.4490 hc         1 NOX       0.038200
     30 H42         28.4920   -11.1100     1.2380 hc         1 NOX       0.038200
     31 H51         27.1220   -12.9020     0.0950 hc         1 NOX       0.063200
     32 H52         27.7070   -11.7000    -1.0520 hc         1 NOX       0.063200
     33 H61         28.0830   -13.9890    -1.9950 hx         1 NOX       0.058450
     34 H62         28.9750   -14.4590    -0.5390 hx         1 NOX       0.058450
     35 H81         30.0920   -14.7320    -3.3070 hx         1 NOX       0.087200
     36 H82         31.6620   -13.9960    -2.9990 hx         1 NOX       0.087200
     37 H91         31.8260   -15.2560    -0.8410 hc         1 NOX       0.045200
     38 H92         30.2610   -15.9890    -1.1480 hc         1 NOX       0.045200
     39 H11         33.8370   -15.9900    -2.0630 ha         1 NOX       0.105500
     40 H12         34.9220   -17.7310    -3.4070 ha         1 NOX       0.134000
     41 H14         31.0390   -19.3610    -4.4270 ha         1 NOX       0.134000
     42 H15         29.9550   -17.5970    -3.0730 ha         1 NOX       0.105500
     43 HN6         32.9150   -20.2810    -5.3070 hn         1 NOX       0.148000
     44 H191        35.7350   -22.0600    -5.5840 hc         1 NOX       0.047700
     45 H192        34.0590   -21.7960    -6.1640 hc         1 NOX       0.047700
     46 H201        34.9250   -20.1340    -7.8280 hc         1 NOX       0.057200
     47 H202        36.5710   -20.4270    -7.2700 hc         1 NOX       0.057200
     48 H211        36.4150   -22.7850    -7.9370 hc         1 NOX       0.016700
     49 H212        34.7000   -22.4760    -8.5220 hc         1 NOX       0.016700
@<TRIPOS>BOND
     1     1     2 1   
     2     1     6 1   
     3     1     7 1   
     4     1     8 1   
     5     2     3 1   
     6     2    25 1   
     7     2    26 1   
     8     3     4 1   
     9     3    27 1   
    10     3    28 1   
    11     4     5 1   
    12     4    29 1   
    13     4    30 1   
    14     5     6 1   
    15     5    31 1   
    16     5    32 1   
    17     6    33 1   
    18     6    34 1   
    19     8     9 1   
    20     8    35 1   
    21     8    36 1   
    22     9    10 1   
    23     9    37 1   
    24     9    38 1   
    25    10    11 ar  
    26    10    15 ar  
    27    11    12 ar  
    28    11    39 1   
    29    12    13 ar  
    30    12    40 1   
    31    13    14 ar  
    32    13    16 1   
    33    14    15 ar  
    34    14    41 1   
    35    15    42 1   
    36    16    17 1   
    37    16    43 1   
    38    17    18 2   
    39    17    19 1   
    40    19    20 1   
    41    19    44 1   
    42    19    45 1   
    43    20    21 1   
    44    20    46 1   
    45    20    47 1   
    46    21    22 1   
    47    21    48 1   
    48    21    49 1   
    49    22    23 1   
    50    22    24 1   
@<TRIPOS>SUBSTRUCTURE
     1 NOX         1 TEMP              0 ****  ****    0 ROOT
