@<TRIPOS>MOLECULE
NOX
   49    50     1     0     0
SMALL
abcg2


@<TRIPOS>ATOM
      1 N1          30.0120   -13.2570    -1.6840 n4         1 NOX      -0.160000
      2 C2          31.0070   -12.6280    -0.7350 c6         1 NOX       0.104600
      3 C3          30.3990   -11.4390    -0.0140 c6         1 NOX      -0.079400
      4 C4          29.1400   -11.8470     0.7520 c6         1 NOX      -0.075400
      5 C5          28.1470   -12.5390    -0.1810 c6         1 NOX      -0.079400
      6 C6          28.7980   -13.7050    -0.9040 c6         1 NOX       0.104600
      7 O7          29.6430   -12.3460    -2.6500 o          1 NOX      -0.664000
      8 C8          30.6420   -14.4310    -2.3950 c3         1 NOX       0.092600
      9 C9          31.1180   -15.6100    -1.5440 c3         1 NOX      -0.038100
     10 C10         31.7240   -16.6610    -2.4410 ca         1 NOX      -0.139300
     11 C11         33.0930   -16.6930    -2.6940 ca         1 NOX      -0.075000
     12 C12         33.6620   -17.6330    -3.5470 ca         1 NOX      -0.155000
     13 C13         32.8460   -18.5760    -4.1790 ca         1 NOX       0.006000
     14 C14         31.4680   -18.5510    -3.9340 ca         1 NOX      -0.155000
     15 C15         30.9210   -17.6080    -3.0790 ca         1 NOX      -0.075000
     16 N16         33.3200   -19.5640    -5.0590 ns         1 NOX      -0.157000
     17 C17         34.5960   -19.8500    -5.4460 c          1 NOX       0.601100
     18 O18         35.5770   -19.2140    -5.0710 o          1 NOX      -0.581100
     19 C19         34.7140   -21.0480    -6.3690 c3         1 NOX      -0.153400
     20 C20         35.7640   -20.8600    -7.4630 c3         1 NOX      -0.047400
     21 C21         35.8740   -22.0860    -8.3600 c3         1 NOX      -0.204400
     22 C22         36.9280   -22.0160    -9.4830 c          1 NOX       0.711000
     23 O23         37.8020   -21.1140    -9.4310 o          1 NOX      -0.738500
     24 O24         36.8400   -22.9040   -10.3740 o          1 NOX      -0.738500
     25 H21         31.3150   -13.3890    -0.0180 hx         1 NOX       0.058450
     26 H22         31.8600   -12.3450    -1.3490 hx         1 NOX       0.058450
     27 H31         31.1530   -11.0370     0.6660 hc         1 NOX       0.063200
     28 H32         30.1620   -10.6620    -0.7410 hc         1 NOX       0.063200
     29 H41         29.4150   -12.5330     1.5610 hc         1 NOX       0.038200
     30 H42         28.6780   -10.9730     1.2160 hc         1 NOX       0.038200
     31 H51         27.2940   -12.9270     0.3790 hc         1 NOX       0.063200
     32 H52         27.7630   -11.8300    -0.9160 hc         1 NOX       0.063200
     33 H61         28.1320   -14.1620    -1.6330 hx         1 NOX       0.058450
     34 H62         29.1190   -14.4610    -0.1880 hx         1 NOX       0.058450
     35 H81         29.8870   -14.7550    -3.1080 hx         1 NOX       0.087200
     36 H82         31.4740   -14.0000    -2.9500 hx         1 NOX       0.087200
     37 H91         31.8620   -15.2840    -0.8170 hc         1 NOX       0.045200
     38 H92         30.2810   -16.0430    -0.9950 hc         1 NOX       0.045200
     39 H11         33.7390   -15.9690    -2.2110 ha         1 NOX       0.105500
     40 H12         34.7240   -17.6400    -3.7220 ha         1 NOX       0.134000
     41 H14         30.8290   -19.2810    -4.4160 ha         1 NOX       0.134000
     42 H15         29.8510   -17.6110    -2.9020 ha         1 NOX       0.105500
     43 HN6         32.6050   -20.1630    -5.4430 hn         1 NOX       0.148000
     44 H191        34.9870   -21.9040    -5.7400 hc         1 NOX       0.047700
     45 H192        33.7420   -21.2830    -6.8100 hc         1 NOX       0.047700
     46 H201        35.5060   -19.9850    -8.0660 hc         1 NOX       0.057200
     47 H202        36.7300   -20.6470    -7.0050 hc         1 NOX       0.057200
     48 H211        36.1180   -22.9660    -7.7520 hc         1 NOX       0.016700
     49 H212        34.9080   -22.3070    -8.8230 hc         1 NOX       0.016700
@<TRIPOS>BOND
     1     1     2 1   
     2     1     6 1   
     3     1     7 1   
     4     1     8 1   
     5     2     3 1   
     6     2    25 1   
     7     2    26 1   
     8     3     4 1   
     9     3    27 1   
    10     3    28 1   
    11     4     5 1   
    12     4    29 1   
    13     4    30 1   
    14     5     6 1   
    15     5    31 1   
    16     5    32 1   
    17     6    33 1   
    18     6    34 1   
    19     8     9 1   
    20     8    35 1   
    21     8    36 1   
    22     9    10 1   
    23     9    37 1   
    24     9    38 1   
    25    10    11 ar  
    26    10    15 ar  
    27    11    12 ar  
    28    11    39 1   
    29    12    13 ar  
    30    12    40 1   
    31    13    14 ar  
    32    13    16 1   
    33    14    15 ar  
    34    14    41 1   
    35    15    42 1   
    36    16    17 1   
    37    16    43 1   
    38    17    18 2   
    39    17    19 1   
    40    19    20 1   
    41    19    44 1   
    42    19    45 1   
    43    20    21 1   
    44    20    46 1   
    45    20    47 1   
    46    21    22 1   
    47    21    48 1   
    48    21    49 1   
    49    22    23 1   
    50    22    24 1   
@<TRIPOS>SUBSTRUCTURE
     1 NOX         1 TEMP              0 ****  ****    0 ROOT
