@<TRIPOS>MOLECULE
NOY
   24    24     1     0     0
SMALL
bcc


@<TRIPOS>ATOM
      1 O4           1.7830    -2.7510     2.5520 oh         1 NOY      -0.586800
      2 C4           1.4890    -1.6220     1.7640 c6         1 NOY       0.168100
      3 C3           2.7530    -0.7800     1.6540 c6         1 NOY       0.085100
      4 O3           3.1420    -0.4050     2.9530 oh         1 NOY      -0.564800
      5 C2           2.4920     0.4440     0.7660 c6         1 NOY       0.323300
      6 N            2.0220     0.0810    -0.5530 n7         1 NOY      -0.809200
      7 C7           0.8100    -0.7170    -0.4710 c6         1 NOY       0.160800
      8 C5           0.9580    -1.9850     0.3740 c6         1 NOY      -0.187700
      9 C6          -0.3870    -2.7040     0.4380 c3         1 NOY       0.133400
     10 O2           3.6180     1.2750     0.7030 oh         1 NOY      -0.574800
     11 O6          -0.3550    -3.9220     1.1650 oh         1 NOY      -0.597800
     12 H4           1.0520    -3.3730     2.4340 ho         1 NOY       0.424000
     13 HA           0.7200    -0.9980     2.2550 h1         1 NOY       0.045700
     14 H3           3.5330    -1.3910     1.1650 h1         1 NOY       0.030700
     15 H5           1.6880    -2.6390    -0.1230 hc         1 NOY       0.057700
     16 HB           3.8850     0.2020     2.8750 ho         1 NOY       0.410000
     17 H            2.7360    -0.4590    -1.0350 hn         1 NOY       0.348800
     18 H7C1         0.4970    -0.9790    -1.4830 h1         1 NOY       0.060700
     19 H7C2         0.0170    -0.0890    -0.0500 h1         1 NOY       0.060700
     20 H6C1        -0.7610    -2.8700    -0.5790 h1         1 NOY       0.051200
     21 H6C2        -1.1150    -2.0640     0.9460 h1         1 NOY       0.051200
     22 H6C3         0.1270    -4.5710     0.6410 ho         1 NOY       0.407000
     23 H12          1.7060     1.0480     1.2370 h2         1 NOY       0.102700
     24 H22          4.3610     0.7790     0.3380 ho         1 NOY       0.400000
@<TRIPOS>BOND
     1     1     2 1   
     2     1    12 1   
     3     2     3 1   
     4     2     8 1   
     5     2    13 1   
     6     3     4 1   
     7     3     5 1   
     8     3    14 1   
     9     4    16 1   
    10     5     6 1   
    11     5    10 1   
    12     5    23 1   
    13     6     7 1   
    14     6    17 1   
    15     7     8 1   
    16     7    18 1   
    17     7    19 1   
    18     8     9 1   
    19     8    15 1   
    20     9    11 1   
    21     9    20 1   
    22     9    21 1   
    23    10    24 1   
    24    11    22 1   
@<TRIPOS>SUBSTRUCTURE
     1 NOY         1 TEMP              0 ****  ****    0 ROOT
