@<TRIPOS>MOLECULE
NOY
   24    24     1     0     0
SMALL
No Charge or Current Charge


@<TRIPOS>ATOM
      1 O4           1.6390    -2.8050     2.6160 oh         1 NOY      -0.709000
      2 C4           1.4760    -1.6060     1.8500 c6         1 NOY       0.191300
      3 C3           2.7870    -0.7540     1.8230 c6         1 NOY       0.108300
      4 O3           3.1700    -0.2850     3.1350 oh         1 NOY      -0.627000
      5 C2           2.5720     0.4480     0.8460 c6         1 NOY       0.346500
      6 N            2.2220     0.0130    -0.4900 n7         1 NOY      -0.864400
      7 C7           0.9530    -0.7510    -0.5030 c6         1 NOY       0.160800
      8 C5           1.0530    -2.0070     0.4050 c6         1 NOY      -0.187700
      9 C6          -0.2800    -2.8100     0.3630 c3         1 NOY       0.156600
     10 O2           3.7580     1.1460     0.5950 oh         1 NOY      -0.697000
     11 O6          -0.1730    -4.0420     1.0910 oh         1 NOY      -0.660000
     12 H4           1.0100    -3.4380     2.1680 ho         1 NOY       0.523000
     13 HA           0.6730    -0.9920     2.2860 h1         1 NOY       0.045700
     14 H3           3.5920    -1.3830     1.4140 h1         1 NOY       0.030700
     15 H5           1.8230    -2.6670    -0.0190 hc         1 NOY       0.057700
     16 HB           3.8970     0.3600     2.9830 ho         1 NOY       0.449000
     17 H            2.9670    -0.6150    -0.8110 hn         1 NOY       0.404000
     18 H7C1         0.7240    -1.0580    -1.5350 h1         1 NOY       0.060700
     19 H7C2         0.1280    -0.1060    -0.1620 h1         1 NOY       0.060700
     20 H6C1        -0.5300    -3.0150    -0.6880 h1         1 NOY       0.051200
     21 H6C2        -1.0860    -2.1870     0.7780 h1         1 NOY       0.051200
     22 H6C3        -0.9820    -4.5670     0.8880 ho         1 NOY       0.446000
     23 H12          1.7880     1.1240     1.2360 h2         1 NOY       0.102700
     24 H22          3.5930     1.5070    -0.3030 ho         1 NOY       0.499000
@<TRIPOS>BOND
     1     1     2 1   
     2     1    12 1   
     3     2     3 1   
     4     2     8 1   
     5     2    13 1   
     6     3     4 1   
     7     3     5 1   
     8     3    14 1   
     9     4    16 1   
    10     5     6 1   
    11     5    10 1   
    12     5    23 1   
    13     6     7 1   
    14     6    17 1   
    15     7     8 1   
    16     7    18 1   
    17     7    19 1   
    18     8     9 1   
    19     8    15 1   
    20     9    11 1   
    21     9    20 1   
    22     9    21 1   
    23    10    24 1   
    24    11    22 1   
@<TRIPOS>SUBSTRUCTURE
     1 NOY         1 TEMP              0 ****  ****    0 ROOT
