@<TRIPOS>MOLECULE
NOZ
   24    24     1     0     0
SMALL
No Charge or Current Charge


@<TRIPOS>ATOM
      1 O4          -0.2280     2.3650     0.0770 oh         1 NOZ      -0.727000
      2 C4           0.0510     0.9720    -0.1610 c6         1 NOZ       0.180300
      3 C3           1.3600     0.5710     0.5850 c6         1 NOZ       0.148300
      4 O3           2.4680     1.3730     0.1150 oh         1 NOZ      -0.654000
      5 C2           1.6540    -0.9630     0.4150 c6         1 NOZ       0.365500
      6 N            0.5030    -1.7980     0.7490 n7         1 NOZ      -0.910400
      7 C7          -0.7640    -1.4200     0.0620 c6         1 NOZ       0.173800
      8 C5          -1.1360     0.0730     0.2860 c6         1 NOZ      -0.061700
      9 C6          -2.4540     0.4420    -0.4560 c3         1 NOZ       0.166600
     10 O6          -3.5680    -0.3430    -0.0070 oh         1 NOZ      -0.668000
     11 O2           1.9650    -1.2880    -0.9270 oh         1 NOZ      -0.729000
     12 H4           0.6590     2.8010     0.0810 ho         1 NOZ       0.519000
     13 HA           0.2100     0.8090    -1.2390 h1         1 NOZ       0.054700
     14 H3           1.2040     0.7540     1.6580 h1         1 NOZ       0.057700
     15 H5          -1.3210     0.2330     1.3560 hc         1 NOZ       0.080700
     16 HB           2.8230     0.8860    -0.6640 ho         1 NOZ       0.447000
     17 H            0.7260    -2.7750     0.5300 hn         1 NOZ       0.423000
     18 H7C1        -0.6730    -1.6130    -1.0180 h1         1 NOZ       0.046700
     19 H7C2        -1.5750    -2.0620     0.4360 h1         1 NOZ       0.046700
     20 H6C1        -2.6680     1.5060    -0.2930 h1         1 NOZ       0.029200
     21 H6C2        -2.3010     0.2990    -1.5350 h1         1 NOZ       0.029200
     22 H6          -4.3590    -0.0250    -0.4970 ho         1 NOZ       0.443000
     23 H2           2.4450    -2.1440    -0.8910 ho         1 NOZ       0.495000
     24 H8           2.4950    -1.2440     1.0700 h2         1 NOZ       0.041700
@<TRIPOS>BOND
     1     1     2 1   
     2     1    12 1   
     3     2     3 1   
     4     2     8 1   
     5     2    13 1   
     6     3     4 1   
     7     3     5 1   
     8     3    14 1   
     9     4    16 1   
    10     5     6 1   
    11     5    11 1   
    12     5    24 1   
    13     6     7 1   
    14     6    17 1   
    15     7     8 1   
    16     7    18 1   
    17     7    19 1   
    18     8     9 1   
    19     8    15 1   
    20     9    10 1   
    21     9    20 1   
    22     9    21 1   
    23    10    22 1   
    24    11    23 1   
@<TRIPOS>SUBSTRUCTURE
     1 NOZ         1 TEMP              0 ****  ****    0 ROOT
