@<TRIPOS>MOLECULE
NOZ
   24    24     1     0     0
SMALL
bcc


@<TRIPOS>ATOM
      1 O4          -0.2180     2.2790     0.1070 oh         1 NOZ      -0.604800
      2 C4           0.0560     0.9280    -0.1980 c6         1 NOZ       0.157100
      3 C3           1.3610     0.4830     0.4600 c6         1 NOZ       0.125100
      4 O3           2.3890     1.2940    -0.0590 oh         1 NOZ      -0.591800
      5 C2           1.6130    -1.0070     0.2360 c6         1 NOZ       0.342300
      6 N            0.4820    -1.7220     0.7520 n7         1 NOZ      -0.855200
      7 C7          -0.7740    -1.4070     0.0940 c6         1 NOZ       0.173800
      8 C5          -1.1100     0.0700     0.2870 c6         1 NOZ      -0.061700
      9 C6          -2.3930     0.4470    -0.4390 c3         1 NOZ       0.143400
     10 O6          -3.4520    -0.3410     0.0590 oh         1 NOZ      -0.605800
     11 O2           1.8740    -1.1960    -1.1410 oh         1 NOZ      -0.606800
     12 H4           0.5340     2.8040    -0.1850 ho         1 NOZ       0.420000
     13 HA           0.1550     0.7950    -1.2870 h1         1 NOZ       0.054700
     14 H3           1.2560     0.6270     1.5440 h1         1 NOZ       0.057700
     15 H5          -1.2420     0.2540     1.3610 hc         1 NOZ       0.080700
     16 HB           3.1590     1.2190     0.5110 ho         1 NOZ       0.408000
     17 H            0.6500    -2.7200     0.7560 hn         1 NOZ       0.367800
     18 H7C1        -0.7660    -1.6370    -0.9820 h1         1 NOZ       0.046700
     19 H7C2        -1.5540    -2.0220     0.5420 h1         1 NOZ       0.046700
     20 H6C1        -2.5950     1.5150    -0.2980 h1         1 NOZ       0.029200
     21 H6C2        -2.2490     0.2870    -1.5180 h1         1 NOZ       0.029200
     22 H6          -4.2500    -0.1030    -0.4200 ho         1 NOZ       0.404000
     23 H2           2.1020    -2.1210    -1.2780 ho         1 NOZ       0.396000
     24 H8           2.4870    -1.3170     0.8270 h2         1 NOZ       0.041700
@<TRIPOS>BOND
     1     1     2 1   
     2     1    12 1   
     3     2     3 1   
     4     2     8 1   
     5     2    13 1   
     6     3     4 1   
     7     3     5 1   
     8     3    14 1   
     9     4    16 1   
    10     5     6 1   
    11     5    11 1   
    12     5    24 1   
    13     6     7 1   
    14     6    17 1   
    15     7     8 1   
    16     7    18 1   
    17     7    19 1   
    18     8     9 1   
    19     8    15 1   
    20     9    10 1   
    21     9    20 1   
    22     9    21 1   
    23    10    22 1   
    24    11    23 1   
@<TRIPOS>SUBSTRUCTURE
     1 NOZ         1 TEMP              0 ****  ****    0 ROOT
