@<TRIPOS>MOLECULE
NP0
   14    13     1     0     0
SMALL
bcc


@<TRIPOS>ATOM
      1 C3           2.5150    -0.3650     0.0300 c3         1 NP0      -0.089100
      2 C2           1.2670     0.5070     0.0430 c3         1 NP0      -0.081400
      3 C1          -0.0030    -0.3260    -0.0470 c3         1 NP0       0.122800
      4 N1          -1.1680     0.5430    -0.0210 n7         1 NP0      -0.556700
      5 O1          -2.3240    -0.2300    -0.2640 oh         1 NP0      -0.449300
      6 H1           3.4210     0.2390     0.0890 hc         1 NP0       0.034700
      7 H2           2.5220    -1.0560     0.8740 hc         1 NP0       0.034700
      8 H3           2.5730    -0.9570    -0.8850 hc         1 NP0       0.034700
      9 H4           1.2420     1.1110     0.9540 hc         1 NP0       0.044700
     10 H5           1.3050     1.2090    -0.7960 hc         1 NP0       0.044700
     11 H6           0.0320    -0.9520    -0.9500 h1         1 NP0       0.046700
     12 H7          -0.0590    -1.0020     0.8110 h1         1 NP0       0.046700
     13 H8          -1.1110     1.1690    -0.8180 hn         1 NP0       0.349800
     14 H9          -2.8520    -0.1140     0.5310 ho         1 NP0       0.418000
@<TRIPOS>BOND
     1     1     2 1   
     2     1     6 1   
     3     1     7 1   
     4     1     8 1   
     5     2     3 1   
     6     2     9 1   
     7     2    10 1   
     8     3     4 1   
     9     3    11 1   
    10     3    12 1   
    11     4     5 1   
    12     4    13 1   
    13     5    14 1   
@<TRIPOS>SUBSTRUCTURE
     1 NP0         1 TEMP              0 ****  ****    0 ROOT
