@<TRIPOS>MOLECULE
NP0
   14    13     1     0     0
SMALL
No Charge or Current Charge


@<TRIPOS>ATOM
      1 C3           2.5710    -0.3650     0.0360 c3         1 NP0      -0.089100
      2 C2           1.2920     0.4950     0.0440 c3         1 NP0      -0.081400
      3 C1           0.0020    -0.3450    -0.0570 c3         1 NP0       0.122800
      4 N1          -1.1860     0.5350    -0.0390 n7         1 NP0      -0.611900
      5 O1          -2.4020    -0.2930    -0.1780 oh         1 NP0      -0.488300
      6 H1           3.4610     0.2720     0.1110 hc         1 NP0       0.034700
      7 H2           2.5760    -1.0610     0.8830 hc         1 NP0       0.034700
      8 H3           2.6420    -0.9460    -0.8910 hc         1 NP0       0.034700
      9 H4           1.2680     1.0880     0.9670 hc         1 NP0       0.044700
     10 H5           1.3350     1.2030    -0.7930 hc         1 NP0       0.044700
     11 H6           0.0310    -0.9330    -0.9850 h1         1 NP0       0.046700
     12 H7          -0.0310    -1.0500     0.7850 h1         1 NP0       0.046700
     13 H8          -1.1720     1.1640    -0.8600 hn         1 NP0       0.405000
     14 H9          -3.0260     0.0130     0.5290 ho         1 NP0       0.457000
@<TRIPOS>BOND
     1     1     2 1   
     2     1     6 1   
     3     1     7 1   
     4     1     8 1   
     5     2     3 1   
     6     2     9 1   
     7     2    10 1   
     8     3     4 1   
     9     3    11 1   
    10     3    12 1   
    11     4     5 1   
    12     4    13 1   
    13     5    14 1   
@<TRIPOS>SUBSTRUCTURE
     1 NP0         1 TEMP              0 ****  ****    0 ROOT
