@<TRIPOS>MOLECULE
NP1
   30    30     1     0     0
SMALL
bcc


@<TRIPOS>ATOM
      1 NZ          -5.8290     0.1130     0.0550 n8         1 NP1      -0.881800
      2 CA          -4.6050     0.8960    -0.0110 c3         1 NP1       0.153800
      3 CB          -3.3870    -0.0150    -0.0150 c3         1 NP1      -0.099400
      4 CG          -2.0930     0.7790    -0.0560 c3         1 NP1       0.226800
      5 NE          -0.9590    -0.1170    -0.0730 nu         1 NP1      -0.755600
      6 CD           0.3240     0.2760    -0.0370 ca         1 NP1       0.288600
      7 CE1          0.6350     1.6580     0.0180 ca         1 NP1      -0.244000
      8 CE2          1.4450    -0.5980    -0.0480 ca         1 NP1      -0.295200
      9 NO2          1.2960    -2.0150    -0.1130 no         1 NP1       0.328200
     10 OC1          2.2880    -2.7170    -0.1150 o          1 NP1      -0.241000
     11 OC2          0.1730    -2.4940    -0.1660 o          1 NP1      -0.241000
     12 CR1          1.9260     2.1120     0.0710 ca         1 NP1      -0.027000
     13 CR2          2.7590    -0.1020     0.0080 ca         1 NP1      -0.015000
     14 CZ           3.0290     1.2420     0.0710 ca         1 NP1      -0.154300
     15 CM           4.4290     1.7720     0.1470 c3         1 NP1      -0.034800
     16 HNZ1        -5.8920    -0.3260     0.9660 hn         1 NP1       0.340300
     17 HNZ2        -6.6270     0.7320    -0.0030 hn         1 NP1       0.340300
     18 HA1         -4.5030     1.6240     0.8070 h1         1 NP1       0.027700
     19 HA2         -4.6180     1.4770    -0.9380 h1         1 NP1       0.027700
     20 HB1         -3.4410    -0.6870    -0.8760 hc         1 NP1       0.062200
     21 HB2         -3.3980    -0.6420     0.8830 hc         1 NP1       0.062200
     22 HG1         -2.0420     1.4370     0.8180 h1         1 NP1       0.043200
     23 HG2         -2.0860     1.4270    -0.9400 h1         1 NP1       0.043200
     24 HNE         -1.1350    -1.1060    -0.1370 hn         1 NP1       0.479800
     25 HE1         -0.1670     2.3810     0.0170 ha         1 NP1       0.139000
     26 HR1          2.0920     3.1830     0.1110 ha         1 NP1       0.133000
     27 HR2          3.5790    -0.8050     0.0020 ha         1 NP1       0.163000
     28 HM1          4.6140     2.2680     1.1020 hc         1 NP1       0.043033
     29 HM2          5.1640     0.9750     0.0410 hc         1 NP1       0.043033
     30 HM3          4.6200     2.5070    -0.6370 hc         1 NP1       0.043033
@<TRIPOS>BOND
     1     1     2 1   
     2     1    16 1   
     3     1    17 1   
     4     2     3 1   
     5     2    18 1   
     6     2    19 1   
     7     3     4 1   
     8     3    20 1   
     9     3    21 1   
    10     4     5 1   
    11     4    22 1   
    12     4    23 1   
    13     5     6 1   
    14     5    24 1   
    15     6     7 ar  
    16     6     8 ar  
    17     7    12 ar  
    18     7    25 1   
    19     8     9 1   
    20     8    13 ar  
    21     9    10 1   
    22     9    11 1   
    23    12    14 ar  
    24    12    26 1   
    25    13    14 ar  
    26    13    27 1   
    27    14    15 1   
    28    15    28 1   
    29    15    29 1   
    30    15    30 1   
@<TRIPOS>SUBSTRUCTURE
     1 NP1         1 TEMP              0 ****  ****    0 ROOT
