@<TRIPOS>MOLECULE
NP1
   30    30     1     0     0
SMALL
No Charge or Current Charge


@<TRIPOS>ATOM
      1 NZ          -5.9010    -0.0090    -0.0560 n8         1 NP1      -0.992200
      2 CA          -4.6920     0.8340    -0.0660 c3         1 NP1       0.153800
      3 CB          -3.4110    -0.0170     0.0130 c3         1 NP1      -0.099400
      4 CG          -2.1350     0.8440    -0.0070 c3         1 NP1       0.226800
      5 NE          -0.9400    -0.0070     0.0770 nu         1 NP1      -0.949200
      6 CD           0.3970     0.3880     0.0520 ca         1 NP1       0.427000
      7 CE1          0.7100     1.7580     0.0910 ca         1 NP1      -0.226000
      8 CE2          1.4440    -0.5590     0.0090 ca         1 NP1      -0.295200
      9 NO2          1.1880    -2.0260    -0.0040 no         1 NP1       0.708200
     10 OC1          2.0580    -2.7670     0.4710 o          1 NP1      -0.431000
     11 OC2          0.1640    -2.4500    -0.5580 o          1 NP1      -0.431000
     12 CR1          2.0420     2.1960     0.0800 ca         1 NP1      -0.009000
     13 CR2          2.7860    -0.1120     0.0040 ca         1 NP1       0.003000
     14 CZ           3.0870     1.2610     0.0340 ca         1 NP1      -0.154300
     15 CM           4.5360     1.7280     0.0260 c3         1 NP1      -0.034800
     16 HNZ1        -5.9620    -0.4970     0.8470 hn         1 NP1       0.395500
     17 HNZ2        -6.7320     0.5960    -0.0560 hn         1 NP1       0.395500
     18 HA1         -4.7340     1.5230     0.7900 h1         1 NP1       0.027700
     19 HA2         -4.6860     1.4280    -0.9910 h1         1 NP1       0.027700
     20 HB1         -3.3890    -0.7150    -0.8330 hc         1 NP1       0.062200
     21 HB2         -3.4280    -0.6150     0.9320 hc         1 NP1       0.062200
     22 HG1         -2.1590     1.5430     0.8410 h1         1 NP1       0.043200
     23 HG2         -2.1120     1.4330    -0.9350 h1         1 NP1       0.043200
     24 HNE         -1.0760    -1.0070    -0.1000 hn         1 NP1       0.535000
     25 HE1         -0.0780     2.5030     0.1310 ha         1 NP1       0.121000
     26 HR1          2.2610     3.2620     0.1100 ha         1 NP1       0.115000
     27 HR2          3.6060    -0.8290    -0.0270 ha         1 NP1       0.145000
     28 HM1          4.9510     1.7290     1.0410 hc         1 NP1       0.043033
     29 HM2          5.1640     1.0730    -0.5910 hc         1 NP1       0.043033
     30 HM3          4.6300     2.7440    -0.3740 hc         1 NP1       0.043033
@<TRIPOS>BOND
     1     1     2 1   
     2     1    16 1   
     3     1    17 1   
     4     2     3 1   
     5     2    18 1   
     6     2    19 1   
     7     3     4 1   
     8     3    20 1   
     9     3    21 1   
    10     4     5 1   
    11     4    22 1   
    12     4    23 1   
    13     5     6 1   
    14     5    24 1   
    15     6     7 ar  
    16     6     8 ar  
    17     7    12 ar  
    18     7    25 1   
    19     8     9 1   
    20     8    13 ar  
    21     9    10 1   
    22     9    11 1   
    23    12    14 ar  
    24    12    26 1   
    25    13    14 ar  
    26    13    27 1   
    27    14    15 1   
    28    15    28 1   
    29    15    29 1   
    30    15    30 1   
@<TRIPOS>SUBSTRUCTURE
     1 NP1         1 TEMP              0 ****  ****    0 ROOT
