@<TRIPOS>MOLECULE
NP2
   27    27     1     0     0
SMALL
No Charge or Current Charge


@<TRIPOS>ATOM
      1 NZ           5.5140     0.5490    -0.0720 n8         1 NP2      -0.992200
      2 CA           4.4150    -0.4330    -0.0710 c3         1 NP2       0.153800
      3 CB           3.0410     0.2600    -0.0080 c3         1 NP2      -0.099400
      4 CG           1.8770    -0.7470    -0.0160 c3         1 NP2       0.224800
      5 NE           0.5890    -0.0440     0.0520 nu         1 NP2      -0.948200
      6 CD          -0.6920    -0.5950     0.0320 ca         1 NP2       0.430000
      7 CE1         -0.8390    -1.9940     0.0890 ca         1 NP2      -0.230000
      8 CE2         -1.8440     0.2210    -0.0240 ca         1 NP2      -0.298200
      9 NO2         -1.7650     1.7080    -0.0590 no         1 NP2       0.709200
     10 OC1         -2.7210     2.3460     0.3990 o          1 NP2      -0.429500
     11 OC2         -0.7960     2.2420    -0.6160 o          1 NP2      -0.429500
     12 CR1         -2.1090    -2.5880     0.0840 ca         1 NP2      -0.008000
     13 CR2         -3.1240    -0.3840    -0.0230 ca         1 NP2       0.005000
     14 CZ          -3.2510    -1.7800     0.0280 ca         1 NP2      -0.193000
     15 HNZ1         5.5130     1.0540     0.8220 hn         1 NP2       0.395500
     16 HNZ2         6.4110     0.0470    -0.0610 hn         1 NP2       0.395500
     17 HA1          4.4820    -1.0380    -0.9860 h1         1 NP2       0.028200
     18 HA2          4.5360    -1.0980     0.7960 h1         1 NP2       0.028200
     19 HB1          2.9830     0.8700     0.9020 hc         1 NP2       0.062200
     20 HB2          2.9390     0.9370    -0.8650 hc         1 NP2       0.062200
     21 HG1          1.9270    -1.3500    -0.9340 h1         1 NP2       0.043700
     22 HG2          1.9810    -1.4250     0.8430 h1         1 NP2       0.043700
     23 HNE          0.6040     0.9620    -0.1380 hn         1 NP2       0.534000
     24 HE1          0.0330    -2.6380     0.1390 ha         1 NP2       0.121000
     25 HR1         -2.2070    -3.6710     0.1270 ha         1 NP2       0.116000
     26 HR2         -4.0280     0.2240    -0.0660 ha         1 NP2       0.146000
     27 HZ          -4.2390    -2.2350     0.0250 ha         1 NP2       0.128000
@<TRIPOS>BOND
     1     1     2 1   
     2     1    15 1   
     3     1    16 1   
     4     2     3 1   
     5     2    17 1   
     6     2    18 1   
     7     3     4 1   
     8     3    19 1   
     9     3    20 1   
    10     4     5 1   
    11     4    21 1   
    12     4    22 1   
    13     5     6 1   
    14     5    23 1   
    15     6     7 ar  
    16     6     8 ar  
    17     7    12 ar  
    18     7    24 1   
    19     8     9 1   
    20     8    13 ar  
    21     9    10 1   
    22     9    11 1   
    23    12    14 ar  
    24    12    25 1   
    25    13    14 ar  
    26    13    26 1   
    27    14    27 1   
@<TRIPOS>SUBSTRUCTURE
     1 NP2         1 TEMP              0 ****  ****    0 ROOT
