@<TRIPOS>MOLECULE
NP2
   27    27     1     0     0
SMALL
abcg2


@<TRIPOS>ATOM
      1 NZ           5.4650     0.4360    -0.0420 n8         1 NP2      -0.992200
      2 CA           4.3460    -0.4930    -0.0440 c3         1 NP2       0.153800
      3 CB           3.0250     0.2610    -0.0540 c3         1 NP2      -0.099400
      4 CG           1.8390    -0.6890    -0.0380 c3         1 NP2       0.224800
      5 NE           0.6020     0.0590    -0.0590 nu         1 NP2      -0.948200
      6 CD          -0.6190    -0.4920    -0.0160 ca         1 NP2       0.430000
      7 CE1         -0.7470    -1.9030     0.0330 ca         1 NP2      -0.230000
      8 CE2         -1.8430     0.2390    -0.0160 ca         1 NP2      -0.298200
      9 NO2         -1.8730     1.6670    -0.0640 no         1 NP2       0.709200
     10 OC1         -2.9450     2.2350    -0.0620 o          1 NP2      -0.429500
     11 OC2         -0.8190     2.2830    -0.1080 o          1 NP2      -0.429500
     12 CR1         -1.9700    -2.5220     0.0810 ca         1 NP2      -0.008000
     13 CR2         -3.0810    -0.4160     0.0340 ca         1 NP2       0.005000
     14 CZ          -3.1590    -1.7840     0.0830 ca         1 NP2      -0.193000
     15 HNZ1         5.4900     0.9210     0.8470 hn         1 NP2       0.395500
     16 HNZ2         6.3320    -0.0830    -0.0900 hn         1 NP2       0.395500
     17 HA1          4.4120    -1.1080    -0.9460 h1         1 NP2       0.028200
     18 HA2          4.3530    -1.1910     0.8050 h1         1 NP2       0.028200
     19 HB1          2.9740     0.9200     0.8190 hc         1 NP2       0.062200
     20 HB2          2.9800     0.8990    -0.9420 hc         1 NP2       0.062200
     21 HG1          1.8940    -1.3590    -0.9030 h1         1 NP2       0.043700
     22 HG2          1.8870    -1.3200     0.8550 h1         1 NP2       0.043700
     23 HNE          0.6590     1.0630    -0.0810 hn         1 NP2       0.534000
     24 HE1          0.1430    -2.5150     0.0320 ha         1 NP2       0.121000
     25 HR1         -2.0070    -3.6030     0.1160 ha         1 NP2       0.116000
     26 HR2         -3.9870     0.1710     0.0350 ha         1 NP2       0.146000
     27 HZ          -4.1200    -2.2770     0.1220 ha         1 NP2       0.128000
@<TRIPOS>BOND
     1     1     2 1   
     2     1    15 1   
     3     1    16 1   
     4     2     3 1   
     5     2    17 1   
     6     2    18 1   
     7     3     4 1   
     8     3    19 1   
     9     3    20 1   
    10     4     5 1   
    11     4    21 1   
    12     4    22 1   
    13     5     6 1   
    14     5    23 1   
    15     6     7 ar  
    16     6     8 ar  
    17     7    12 ar  
    18     7    24 1   
    19     8     9 1   
    20     8    13 ar  
    21     9    10 1   
    22     9    11 1   
    23    12    14 ar  
    24    12    25 1   
    25    13    14 ar  
    26    13    26 1   
    27    14    27 1   
@<TRIPOS>SUBSTRUCTURE
     1 NP2         1 TEMP              0 ****  ****    0 ROOT
