@<TRIPOS>MOLECULE
NP4
   39    40     1     0     0
SMALL
bcc


@<TRIPOS>ATOM
      1 C1          -0.7940     1.1990     0.2370 c          1 NP4       0.658700
      2 C2           0.6630     1.0540     0.0380 ca         1 NP4      -0.269600
      3 O10         -1.2980     2.3020    -0.3150 os         1 NP4      -0.453900
      4 C3           1.5280     2.1480     0.1880 ca         1 NP4       0.246100
      5 C4           2.9040     1.9460     0.2090 ca         1 NP4      -0.285000
      6 C5           3.4270     0.6750     0.0570 ca         1 NP4       0.216100
      7 C6           2.5610    -0.4080    -0.1550 ca         1 NP4      -0.054600
      8 C7           1.1900    -0.2340    -0.1790 ca         1 NP4       0.075700
      9 C8           0.2830    -1.3780    -0.5310 c3         1 NP4      -0.151100
     10 C9          -0.2560    -2.1650     0.6400 c          1 NP4       0.594100
     11 C10         -1.4260    -3.0800     0.3530 c3         1 NP4      -0.174400
     12 C11         -2.7910    -2.4120     0.6120 c3         1 NP4      -0.059400
     13 C12         -3.3580    -1.6230    -0.5780 c3         1 NP4      -0.038200
     14 C13         -4.4290    -0.6740    -0.1430 c2         1 NP4      -0.138200
     15 C14         -4.4780     0.6440    -0.3350 c2         1 NP4      -0.175200
     16 C15         -3.5110     1.5020    -1.0960 c3         1 NP4      -0.061200
     17 C16         -2.7250     2.4940    -0.2180 c3         1 NP4       0.149400
     18 O1          -1.4680     0.4110     0.8480 o          1 NP4      -0.511000
     19 O3           1.1160     3.4090     0.3580 oh         1 NP4      -0.492100
     20 O4           4.7360     0.4240     0.0800 oh         1 NP4      -0.466100
     21 CL1          3.2780    -1.9650    -0.3910 cl         1 NP4      -0.081400
     22 O5           0.2510    -2.1010     1.7350 o          1 NP4      -0.502100
     23 H4           3.5620     2.7960     0.3470 ha         1 NP4       0.155000
     24 H8C1         0.8120    -2.0990    -1.1620 hc         1 NP4       0.076700
     25 H8C2        -0.5460    -1.0430    -1.1550 hc         1 NP4       0.076700
     26 H101        -1.3280    -3.9470     1.0090 hc         1 NP4       0.058700
     27 H102        -1.3810    -3.4430    -0.6780 hc         1 NP4       0.058700
     28 H111        -2.7220    -1.7730     1.4930 hc         1 NP4       0.054700
     29 H112        -3.5020    -3.1990     0.8690 hc         1 NP4       0.054700
     30 H121        -3.7720    -2.3400    -1.2950 hc         1 NP4       0.040200
     31 H122        -2.5750    -1.0910    -1.1120 hc         1 NP4       0.040200
     32 H13         -5.2450    -1.1240     0.4180 ha         1 NP4       0.117000
     33 H14         -5.3250     1.1780     0.0880 ha         1 NP4       0.115000
     34 H151        -4.0770     2.0810    -1.8310 hc         1 NP4       0.053700
     35 H152        -2.8160     0.8990    -1.6820 hc         1 NP4       0.053700
     36 H161        -3.0320     2.4370     0.8280 h1         1 NP4       0.063700
     37 H162        -2.8680     3.5170    -0.5560 h1         1 NP4       0.063700
     38 H3           0.1670     3.4940     0.1860 ho         1 NP4       0.455000
     39 HA           5.2350     1.2340     0.2380 ho         1 NP4       0.436000
@<TRIPOS>BOND
     1     1     2 1   
     2     1     3 1   
     3     1    18 2   
     4     2     4 ar  
     5     2     8 ar  
     6     3    17 1   
     7     4     5 ar  
     8     4    19 1   
     9     5     6 ar  
    10     5    23 1   
    11     6     7 ar  
    12     6    20 1   
    13     7     8 ar  
    14     7    21 1   
    15     8     9 1   
    16     9    10 1   
    17     9    24 1   
    18     9    25 1   
    19    10    11 1   
    20    10    22 2   
    21    11    12 1   
    22    11    26 1   
    23    11    27 1   
    24    12    13 1   
    25    12    28 1   
    26    12    29 1   
    27    13    14 1   
    28    13    30 1   
    29    13    31 1   
    30    14    15 2   
    31    14    32 1   
    32    15    16 1   
    33    15    33 1   
    34    16    17 1   
    35    16    34 1   
    36    16    35 1   
    37    17    36 1   
    38    17    37 1   
    39    19    38 1   
    40    20    39 1   
@<TRIPOS>SUBSTRUCTURE
     1 NP4         1 TEMP              0 ****  ****    0 ROOT
