@<TRIPOS>MOLECULE
NP4
   39    40     1     0     0
SMALL
No Charge or Current Charge


@<TRIPOS>ATOM
      1 C1          -0.7960     1.1910     0.2750 c          1 NP4       0.609700
      2 C2           0.6830     1.0100     0.1000 ca         1 NP4      -0.269600
      3 O10         -1.2920     2.2830    -0.3940 os         1 NP4      -0.477100
      4 C3           1.5350     2.1150     0.2890 ca         1 NP4       0.246100
      5 C4           2.9220     1.9620     0.2640 ca         1 NP4      -0.267000
      6 C5           3.4850     0.7020     0.0410 ca         1 NP4       0.216100
      7 C6           2.6550    -0.4150    -0.1900 ca         1 NP4       0.037000
      8 C7           1.2440    -0.2670    -0.1800 ca         1 NP4       0.075700
      9 C8           0.3440    -1.4540    -0.5540 c3         1 NP4      -0.151100
     10 C9          -0.2490    -2.2380     0.6250 c          1 NP4       0.594100
     11 C10         -1.4620    -3.1440     0.3260 c3         1 NP4      -0.174400
     12 C11         -2.8220    -2.4610     0.6420 c3         1 NP4      -0.059400
     13 C12         -3.4120    -1.6320    -0.5280 c3         1 NP4      -0.038200
     14 C13         -4.4520    -0.6240    -0.0700 c2         1 NP4      -0.188200
     15 C14         -4.4850     0.7000    -0.3220 c2         1 NP4      -0.225200
     16 C15         -3.5130     1.5340    -1.1530 c3         1 NP4      -0.061200
     17 C16         -2.7090     2.5670    -0.3150 c3         1 NP4       0.172600
     18 O1          -1.4620     0.4810     1.0080 o          1 NP4      -0.462000
     19 O3           1.0310     3.3590     0.5070 oh         1 NP4      -0.531100
     20 O4           4.8450     0.5760     0.0340 oh         1 NP4      -0.505100
     21 Cl1          3.4060    -1.9950    -0.4850 cl         1 NP4      -0.173000
     22 O5           0.2390    -2.1830     1.7480 o          1 NP4      -0.502100
     23 H4           3.5550     2.8300     0.4250 ha         1 NP4       0.137000
     24 H8C1         0.8360    -2.1850    -1.2030 hc         1 NP4       0.076700
     25 H8C2        -0.4620    -1.1510    -1.2250 hc         1 NP4       0.076700
     26 H101        -1.3790    -4.0430     0.9490 hc         1 NP4       0.058700
     27 H102        -1.4650    -3.4210    -0.7350 hc         1 NP4       0.058700
     28 H111        -2.7120    -1.8290     1.5320 hc         1 NP4       0.054700
     29 H112        -3.5540    -3.2330     0.9110 hc         1 NP4       0.054700
     30 H121        -3.8600    -2.3210    -1.2540 hc         1 NP4       0.040200
     31 H122        -2.6050    -1.1290    -1.0600 hc         1 NP4       0.040200
     32 H13         -5.2420    -1.0670     0.5400 ha         1 NP4       0.167000
     33 H14         -5.3070     1.2900     0.0890 ha         1 NP4       0.165000
     34 H151        -4.0890     2.0900    -1.9020 hc         1 NP4       0.053700
     35 H152        -2.8250     0.9140    -1.7370 hc         1 NP4       0.053700
     36 H161        -3.0570     2.5690     0.7270 h1         1 NP4       0.063700
     37 H162        -2.9050     3.5680    -0.7210 h1         1 NP4       0.063700
     38 H3           0.0920     3.3400     0.2090 ho         1 NP4       0.494000
     39 HA           5.2360     1.4580     0.2090 ho         1 NP4       0.475000
@<TRIPOS>BOND
     1     1     2 1   
     2     1     3 1   
     3     1    18 2   
     4     2     4 ar  
     5     2     8 ar  
     6     3    17 1   
     7     4     5 ar  
     8     4    19 1   
     9     5     6 ar  
    10     5    23 1   
    11     6     7 ar  
    12     6    20 1   
    13     7     8 ar  
    14     7    21 1   
    15     8     9 1   
    16     9    10 1   
    17     9    24 1   
    18     9    25 1   
    19    10    11 1   
    20    10    22 2   
    21    11    12 1   
    22    11    26 1   
    23    11    27 1   
    24    12    13 1   
    25    12    28 1   
    26    12    29 1   
    27    13    14 1   
    28    13    30 1   
    29    13    31 1   
    30    14    15 2   
    31    14    32 1   
    32    15    16 1   
    33    15    33 1   
    34    16    17 1   
    35    16    34 1   
    36    16    35 1   
    37    17    36 1   
    38    17    37 1   
    39    19    38 1   
    40    20    39 1   
@<TRIPOS>SUBSTRUCTURE
     1 NP4         1 TEMP              0 ****  ****    0 ROOT
