@<TRIPOS>MOLECULE
NP5
   39    40     1     0     0
SMALL
bcc


@<TRIPOS>ATOM
      1 C1          -0.5700     1.1510    -0.7710 c          1 NP5       0.680700
      2 O10         -1.1600     2.1840    -0.1610 os         1 NP5      -0.458900
      3 C2           0.8140     0.9360    -0.2890 ca         1 NP5      -0.258600
      4 C3           1.6090     2.0160     0.1390 ca         1 NP5       0.251100
      5 C4           2.9420     1.8140     0.4820 ca         1 NP5      -0.290000
      6 C5           3.4900     0.5480     0.4440 ca         1 NP5       0.217100
      7 C6           2.6880    -0.5380     0.0640 ca         1 NP5      -0.065600
      8 C7           1.3670    -0.3640    -0.3120 ca         1 NP5       0.079700
      9 C8           0.5230    -1.5500    -0.6800 c3         1 NP5      -0.159100
     10 C9          -0.6720    -1.7440     0.2360 c          1 NP5       0.583100
     11 C10         -1.7140    -2.6970    -0.2780 c3         1 NP5      -0.177400
     12 C11         -2.9070    -2.9380     0.6380 c3         1 NP5      -0.057400
     13 C12         -4.0590    -1.9490     0.4400 c3         1 NP5      -0.040200
     14 C13         -3.7430    -0.5250     0.7700 c2         1 NP5      -0.146200
     15 C14         -3.8010     0.4790    -0.1000 c2         1 NP5      -0.178200
     16 C15         -3.5680     1.9180     0.2350 c3         1 NP5      -0.061200
     17 C16         -2.4770     2.6030    -0.5700 c3         1 NP5       0.154400
     18 O1          -1.1140     0.5060    -1.6290 o          1 NP5      -0.533000
     19 O3           1.1860     3.2810     0.2170 oh         1 NP5      -0.495100
     20 O4           4.7580     0.2990     0.7690 oh         1 NP5      -0.466100
     21 CL1          3.4430    -2.0990     0.0930 cl         1 NP5      -0.088400
     22 O5          -0.7270    -1.2160     1.3210 o          1 NP5      -0.515100
     23 H4           3.5420     2.6640     0.7860 ha         1 NP5       0.155000
     24 H8C1         1.1060    -2.4710    -0.6030 hc         1 NP5       0.090200
     25 H8C2         0.1960    -1.5060    -1.7170 hc         1 NP5       0.090200
     26 H101        -1.1930    -3.6390    -0.4860 hc         1 NP5       0.065700
     27 H102        -2.0380    -2.3390    -1.2610 hc         1 NP5       0.065700
     28 H111        -2.5850    -2.9360     1.6820 hc         1 NP5       0.048700
     29 H112        -3.2940    -3.9410     0.4430 hc         1 NP5       0.048700
     30 H121        -4.8930    -2.2800     1.0690 hc         1 NP5       0.042700
     31 H122        -4.4110    -2.0160    -0.5940 hc         1 NP5       0.042700
     32 H13         -3.4720    -0.3170     1.8020 ha         1 NP5       0.127000
     33 H14         -4.0640     0.2660    -1.1330 ha         1 NP5       0.121000
     34 H151        -3.3690     2.0430     1.3020 hc         1 NP5       0.055700
     35 H152        -4.4820     2.4860     0.0260 hc         1 NP5       0.055700
     36 H161        -2.4930     3.6740    -0.3770 h1         1 NP5       0.059700
     37 H162        -2.6080     2.4470    -1.6410 h1         1 NP5       0.059700
     38 H3           0.2220     3.3150     0.1150 ho         1 NP5       0.459000
     39 HA           5.2110     1.1150     1.0130 ho         1 NP5       0.436000
@<TRIPOS>BOND
     1     1     2 1   
     2     1     3 1   
     3     1    18 2   
     4     2    17 1   
     5     3     4 ar  
     6     3     8 ar  
     7     4     5 ar  
     8     4    19 1   
     9     5     6 ar  
    10     5    23 1   
    11     6     7 ar  
    12     6    20 1   
    13     7     8 ar  
    14     7    21 1   
    15     8     9 1   
    16     9    10 1   
    17     9    24 1   
    18     9    25 1   
    19    10    11 1   
    20    10    22 2   
    21    11    12 1   
    22    11    26 1   
    23    11    27 1   
    24    12    13 1   
    25    12    28 1   
    26    12    29 1   
    27    13    14 1   
    28    13    30 1   
    29    13    31 1   
    30    14    15 2   
    31    14    32 1   
    32    15    16 1   
    33    15    33 1   
    34    16    17 1   
    35    16    34 1   
    36    16    35 1   
    37    17    36 1   
    38    17    37 1   
    39    19    38 1   
    40    20    39 1   
@<TRIPOS>SUBSTRUCTURE
     1 NP5         1 TEMP              0 ****  ****    0 ROOT
