@<TRIPOS>MOLECULE
NP5
   39    40     1     0     0
SMALL
No Charge or Current Charge


@<TRIPOS>ATOM
      1 C1          -0.6350     1.5960    -0.9350 c          1 NP5       0.631700
      2 O10         -1.1960     2.5280    -0.0990 os         1 NP5      -0.482100
      3 C2           0.7140     1.1450    -0.4620 ca         1 NP5      -0.258600
      4 C3           1.6630     2.1160    -0.0830 ca         1 NP5       0.251100
      5 C4           2.9500     1.7460     0.3070 ca         1 NP5      -0.272000
      6 C5           3.3090     0.3960     0.3530 ca         1 NP5       0.217100
      7 C6           2.3680    -0.5970     0.0160 ca         1 NP5       0.026000
      8 C7           1.0600    -0.2330    -0.3930 ca         1 NP5       0.079700
      9 C8           0.0390    -1.3420    -0.6820 c3         1 NP5      -0.159100
     10 C9          -0.5670    -1.9760     0.5750 c          1 NP5       0.583100
     11 C10         -1.3820    -3.2590     0.3640 c3         1 NP5      -0.177400
     12 C11         -2.8890    -3.1050     0.6940 c3         1 NP5      -0.057400
     13 C12         -3.6320    -1.9950    -0.0900 c3         1 NP5      -0.040200
     14 C13         -3.4650    -0.6030     0.4910 c2         1 NP5      -0.196200
     15 C14         -3.5610     0.5410    -0.2070 c2         1 NP5      -0.228200
     16 C15         -3.5100     1.9370     0.3930 c3         1 NP5      -0.061200
     17 C16         -2.5630     2.9350    -0.3190 c3         1 NP5       0.177600
     18 O1          -1.1350     1.2340    -1.9900 o          1 NP5      -0.484000
     19 O3           1.3520     3.4400    -0.0830 oh         1 NP5      -0.534100
     20 O4           4.5740     0.0590     0.7460 oh         1 NP5      -0.505100
     21 Cl1          2.8370    -2.3050     0.1290 cl         1 NP5      -0.180000
     22 O5          -0.3860    -1.5130     1.6950 o          1 NP5      -0.515100
     23 H4           3.6640     2.5170     0.5830 ha         1 NP5       0.137000
     24 H8C1         0.4590    -2.1450    -1.2990 hc         1 NP5       0.090200
     25 H8C2        -0.7950    -1.0630    -1.3280 hc         1 NP5       0.090200
     26 H101        -0.9700    -4.0360     1.0180 hc         1 NP5       0.065700
     27 H102        -1.2870    -3.5910    -0.6770 hc         1 NP5       0.065700
     28 H111        -3.0160    -2.9420     1.7720 hc         1 NP5       0.048700
     29 H112        -3.3770    -4.0630     0.4750 hc         1 NP5       0.048700
     30 H121        -4.7010    -2.2420    -0.0750 hc         1 NP5       0.042700
     31 H122        -3.3330    -2.0200    -1.1460 hc         1 NP5       0.042700
     32 H13         -3.3110    -0.5730     1.5720 ha         1 NP5       0.177000
     33 H14         -3.7450     0.5160    -1.2830 ha         1 NP5       0.171000
     34 H151        -3.2340     1.8900     1.4540 hc         1 NP5       0.055700
     35 H152        -4.5190     2.3660     0.3670 hc         1 NP5       0.055700
     36 H161        -2.7240     3.9260     0.1250 h1         1 NP5       0.059700
     37 H162        -2.8070     3.0130    -1.3870 h1         1 NP5       0.059700
     38 H3           0.3680     3.4990    -0.0470 ho         1 NP5       0.498000
     39 HA           5.0660     0.8840     0.9380 ho         1 NP5       0.475000
@<TRIPOS>BOND
     1     1     2 1   
     2     1     3 1   
     3     1    18 2   
     4     2    17 1   
     5     3     4 ar  
     6     3     8 ar  
     7     4     5 ar  
     8     4    19 1   
     9     5     6 ar  
    10     5    23 1   
    11     6     7 ar  
    12     6    20 1   
    13     7     8 ar  
    14     7    21 1   
    15     8     9 1   
    16     9    10 1   
    17     9    24 1   
    18     9    25 1   
    19    10    11 1   
    20    10    22 2   
    21    11    12 1   
    22    11    26 1   
    23    11    27 1   
    24    12    13 1   
    25    12    28 1   
    26    12    29 1   
    27    13    14 1   
    28    13    30 1   
    29    13    31 1   
    30    14    15 2   
    31    14    32 1   
    32    15    16 1   
    33    15    33 1   
    34    16    17 1   
    35    16    34 1   
    36    16    35 1   
    37    17    36 1   
    38    17    37 1   
    39    19    38 1   
    40    20    39 1   
@<TRIPOS>SUBSTRUCTURE
     1 NP5         1 TEMP              0 ****  ****    0 ROOT
