@<TRIPOS>MOLECULE
NP6
   50    51     1     0     0
SMALL
bcc


@<TRIPOS>ATOM
      1 C2           0.2480     6.5800    -0.2380 c3         1 NP6      -0.091100
      2 C1           0.5750     5.3150     0.5440 c3         1 NP6      -0.066400
      3 C3           1.4290     4.3560    -0.2730 c3         1 NP6      -0.152400
      4 C4           1.8130     3.1000     0.4750 c          1 NP6       0.687100
      5 O1           1.9720     3.0760     1.6860 o          1 NP6      -0.596100
      6 N1           1.9990     2.0170    -0.3080 ns         1 NP6      -0.553900
      7 C5           2.3810     0.7320     0.1890 c6         1 NP6       0.058400
      8 C6           3.5810     0.1660    -0.5630 c6         1 NP6       0.138100
      9 O2           4.6520     1.0380    -0.3520 oh         1 NP6      -0.575800
     10 C7           3.8790    -1.2380    -0.0490 c6         1 NP6       0.075100
     11 O3           4.9680    -1.7360    -0.7860 oh         1 NP6      -0.595800
     12 C8           2.6510    -2.1260    -0.2480 c6         1 NP6       0.131100
     13 C9           2.8200    -3.4910     0.3760 c3         1 NP6       0.146400
     14 O4           1.6960    -4.2760     0.0680 oh         1 NP6      -0.577800
     15 O5           1.4840    -1.5410     0.3500 os         1 NP6      -0.407400
     16 C10          1.2300    -0.2500     0.1740 c2         1 NP6       0.546600
     17 N2           0.0510     0.2160     0.1020 n2         1 NP6      -0.405200
     18 O6          -0.8840    -0.7980     0.1700 os         1 NP6      -0.202600
     19 C11         -2.1460    -0.3660    -0.0590 c          1 NP6       0.770100
     20 O7          -2.4450     0.7590    -0.3620 o          1 NP6      -0.531000
     21 N3          -2.9770    -1.4230     0.1090 ns         1 NP6      -0.473100
     22 C12         -4.3670    -1.4570    -0.0300 ca         1 NP6       0.090600
     23 C13         -5.1360    -0.4100    -0.5410 ca         1 NP6      -0.170500
     24 C14         -6.5130    -0.5580    -0.6430 ca         1 NP6      -0.100000
     25 C15         -7.1450    -1.7290    -0.2520 ca         1 NP6      -0.157000
     26 C16         -6.3760    -2.7710     0.2500 ca         1 NP6      -0.100000
     27 C17         -5.0030    -2.6380     0.3610 ca         1 NP6      -0.170500
     28 H21C        -0.3060     6.3510    -1.1490 hc         1 NP6       0.032033
     29 H22C        -0.3580     7.2650     0.3550 hc         1 NP6       0.032033
     30 H23C         1.1570     7.1090    -0.5310 hc         1 NP6       0.032033
     31 H11C         1.0970     5.5770     1.4660 hc         1 NP6       0.057200
     32 H12C        -0.3510     4.8190     0.8430 hc         1 NP6       0.057200
     33 H31C         0.9170     4.0990    -1.2040 hc         1 NP6       0.057200
     34 H32C         2.3590     4.8540    -0.5710 hc         1 NP6       0.057200
     35 H1           1.7880     2.0940    -1.2910 hn         1 NP6       0.319500
     36 H5           2.6730     0.8530     1.2380 h1         1 NP6       0.121700
     37 H6           3.3300     0.0920    -1.6340 h1         1 NP6       0.048700
     38 H2           5.4110     0.7030    -0.8420 ho         1 NP6       0.422000
     39 H7           4.1140    -1.1770     1.0230 h1         1 NP6       0.062700
     40 H3           5.5020    -2.3040    -0.2240 ho         1 NP6       0.417000
     41 H8           2.4660    -2.2350    -1.3240 h1         1 NP6       0.078700
     42 H91C         3.7420    -3.9310    -0.0220 h1         1 NP6       0.029700
     43 H92C         2.9590    -3.3730     1.4590 h1         1 NP6       0.029700
     44 H4           1.8470    -5.1600     0.4140 ho         1 NP6       0.409000
     45 HA          -2.5490    -2.2870     0.4100 hn         1 NP6       0.335500
     46 H13         -4.6810     0.5120    -0.8610 ha         1 NP6       0.146000
     47 H17         -4.4160    -3.4580     0.7590 ha         1 NP6       0.146000
     48 H14         -7.0950     0.2640    -1.0400 ha         1 NP6       0.131000
     49 H15         -8.2190    -1.8300    -0.3390 ha         1 NP6       0.132000
     50 H16         -6.8440    -3.6950     0.5630 ha         1 NP6       0.131000
@<TRIPOS>BOND
     1     1     2 1   
     2     1    28 1   
     3     1    29 1   
     4     1    30 1   
     5     2     3 1   
     6     2    31 1   
     7     2    32 1   
     8     3     4 1   
     9     3    33 1   
    10     3    34 1   
    11     4     5 2   
    12     4     6 1   
    13     6     7 1   
    14     6    35 1   
    15     7     8 1   
    16     7    16 1   
    17     7    36 1   
    18     8     9 1   
    19     8    10 1   
    20     8    37 1   
    21     9    38 1   
    22    10    11 1   
    23    10    12 1   
    24    10    39 1   
    25    11    40 1   
    26    12    13 1   
    27    12    15 1   
    28    12    41 1   
    29    13    14 1   
    30    13    42 1   
    31    13    43 1   
    32    14    44 1   
    33    15    16 1   
    34    16    17 2   
    35    17    18 1   
    36    18    19 1   
    37    19    20 2   
    38    19    21 1   
    39    21    22 1   
    40    21    45 1   
    41    22    23 ar  
    42    22    27 ar  
    43    23    24 ar  
    44    23    46 1   
    45    24    25 ar  
    46    24    48 1   
    47    25    26 ar  
    48    25    49 1   
    49    26    27 ar  
    50    26    50 1   
    51    27    47 1   
@<TRIPOS>SUBSTRUCTURE
     1 NP6         1 TEMP              0 ****  ****    0 ROOT
