@<TRIPOS>MOLECULE
NP6
   50    51     1     0     0
SMALL
No Charge or Current Charge


@<TRIPOS>ATOM
      1 C2          -0.1190     6.1530    -0.8250 c3         1 NP6      -0.091100
      2 C1           0.1140     4.7640    -0.2000 c3         1 NP6      -0.066400
      3 C3           1.5820     4.5330     0.2320 c3         1 NP6      -0.152400
      4 C4           1.7720     3.1410     0.8410 c          1 NP6       0.620100
      5 O1           1.3900     2.8540     1.9660 o          1 NP6      -0.596100
      6 N1           2.4440     2.2400     0.0480 ns         1 NP6      -0.486900
      7 C5           2.6950     0.8090     0.3860 c6         1 NP6       0.058400
      8 C6           3.7680     0.1910    -0.5450 c6         1 NP6       0.161300
      9 O2           5.0010     0.9230    -0.4700 oh         1 NP6      -0.638000
     10 C7           4.0150    -1.2930    -0.1630 c6         1 NP6       0.098300
     11 O3           5.0420    -1.8490    -1.0120 oh         1 NP6      -0.658000
     12 C8           2.6690    -2.0660    -0.2960 c6         1 NP6       0.154300
     13 C9           2.7710    -3.5590     0.1580 c3         1 NP6       0.169600
     14 O4           1.5190    -4.2640     0.0690 oh         1 NP6      -0.640000
     15 O5           1.6180    -1.4310     0.4770 os         1 NP6      -0.430600
     16 C10          1.4250    -0.0680     0.3680 c2         1 NP6       0.546600
     17 N2           0.2210     0.4020     0.2690 n2         1 NP6      -0.306700
     18 O6          -0.8160    -0.5900     0.2700 os         1 NP6      -0.301100
     19 C11         -2.1060    -0.1150     0.1560 c          1 NP6       0.654100
     20 O7          -2.4160     1.0660     0.0500 o          1 NP6      -0.482000
     21 N3          -2.9770    -1.1910     0.1750 ns         1 NP6      -0.147000
     22 C12         -4.3930    -1.2760     0.0910 ca         1 NP6      -0.002000
     23 C13         -5.2360    -0.1490    -0.0320 ca         1 NP6      -0.152500
     24 C14         -6.6310    -0.3090    -0.1100 ca         1 NP6      -0.082000
     25 C15         -7.1970    -1.5930    -0.0660 ca         1 NP6      -0.139000
     26 C16         -6.3690    -2.7190     0.0570 ca         1 NP6      -0.082000
     27 C17         -4.9740    -2.5590     0.1350 ca         1 NP6      -0.152500
     28 H21C         0.4990     6.2840    -1.7220 hc         1 NP6       0.032033
     29 H22C        -1.1700     6.2710    -1.1140 hc         1 NP6       0.032033
     30 H23C         0.1320     6.9470    -0.1120 hc         1 NP6       0.032033
     31 H11C        -0.5450     4.6500     0.6710 hc         1 NP6       0.057200
     32 H12C        -0.1790     3.9920    -0.9230 hc         1 NP6       0.057200
     33 H31C         2.2250     4.6490    -0.6490 hc         1 NP6       0.057200
     34 H32C         1.8450     5.2850     0.9860 hc         1 NP6       0.057200
     35 H1           2.7720     2.5840    -0.8470 hn         1 NP6       0.319500
     36 H5           3.0840     0.7770     1.4140 h1         1 NP6       0.121700
     37 H6           3.3870     0.2210    -1.5780 h1         1 NP6       0.048700
     38 H2           5.6760     0.3170    -0.8540 ho         1 NP6       0.461000
     39 H7           4.3370    -1.3320     0.8900 h1         1 NP6       0.062700
     40 H3           5.4520    -2.6060    -0.5340 ho         1 NP6       0.456000
     41 H8           2.3660    -2.0580    -1.3530 h1         1 NP6       0.078700
     42 H91C         3.5220    -4.0620    -0.4660 h1         1 NP6       0.029700
     43 H92C         3.1390    -3.5800     1.1930 h1         1 NP6       0.029700
     44 H4           1.6700    -5.1660     0.4270 ho         1 NP6       0.448000
     45 HA          -2.5140    -2.0850     0.2680 hn         1 NP6       0.169000
     46 H13         -4.8330     0.8580    -0.0690 ha         1 NP6       0.128000
     47 H17         -4.3430    -3.4400     0.2300 ha         1 NP6       0.128000
     48 H14         -7.2730     0.5640    -0.2050 ha         1 NP6       0.113000
     49 H15         -8.2770    -1.7140    -0.1260 ha         1 NP6       0.114000
     50 H16         -6.8050    -3.7150     0.0920 ha         1 NP6       0.113000
@<TRIPOS>BOND
     1     1     2 1   
     2     1    28 1   
     3     1    29 1   
     4     1    30 1   
     5     2     3 1   
     6     2    31 1   
     7     2    32 1   
     8     3     4 1   
     9     3    33 1   
    10     3    34 1   
    11     4     5 2   
    12     4     6 1   
    13     6     7 1   
    14     6    35 1   
    15     7     8 1   
    16     7    16 1   
    17     7    36 1   
    18     8     9 1   
    19     8    10 1   
    20     8    37 1   
    21     9    38 1   
    22    10    11 1   
    23    10    12 1   
    24    10    39 1   
    25    11    40 1   
    26    12    13 1   
    27    12    15 1   
    28    12    41 1   
    29    13    14 1   
    30    13    42 1   
    31    13    43 1   
    32    14    44 1   
    33    15    16 1   
    34    16    17 2   
    35    17    18 1   
    36    18    19 1   
    37    19    20 2   
    38    19    21 1   
    39    21    22 1   
    40    21    45 1   
    41    22    23 ar  
    42    22    27 ar  
    43    23    24 ar  
    44    23    46 1   
    45    24    25 ar  
    46    24    48 1   
    47    25    26 ar  
    48    25    49 1   
    49    26    27 ar  
    50    26    50 1   
    51    27    47 1   
@<TRIPOS>SUBSTRUCTURE
     1 NP6         1 TEMP              0 ****  ****    0 ROOT
