@<TRIPOS>MOLECULE
NP7
   45    47     1     0     0
SMALL
No Charge or Current Charge


@<TRIPOS>ATOM
      1 CAA         -3.3570     4.7060    -0.1030 c3         1 NP7       0.153100
      2 OAB          2.3780    -1.1370     0.3490 o          1 NP7      -0.547100
      3 OAC         -1.7380    -5.9460    -0.2340 o          1 NP7      -0.397500
      4 OAD          0.3510    -5.3770     0.0300 o          1 NP7      -0.397500
      5 CAF          3.2270     3.9390     0.4270 ca         1 NP7      -0.081000
      6 CAG          1.9790     3.6680    -0.1490 ca         1 NP7      -0.116000
      7 CAH          3.9790     2.8900     0.9750 ca         1 NP7      -0.109000
      8 CAI          1.4860     2.3540    -0.1800 ca         1 NP7      -0.083000
      9 CAJ         -2.5980    -3.2770    -0.2490 ca         1 NP7      -0.055000
     10 CAK         -2.9650    -1.9220    -0.2480 ca         1 NP7      -0.141000
     11 CAL         -0.2630    -2.6340     0.0430 ca         1 NP7      -0.067000
     12 CAM         -2.5080     2.6970     1.0690 c6         1 NP7       0.161800
     13 CAN         -3.1500     2.5440    -1.2920 c6         1 NP7       0.161800
     14 CAO         -2.5930     1.1420     1.2100 c6         1 NP7       0.183300
     15 CAP         -3.2480     0.9870    -1.1830 c6         1 NP7       0.183300
     16 CAR          1.6720    -0.1370     0.3140 c          1 NP7       0.623700
     17 CAS          3.4980     1.5690     0.9500 ca         1 NP7       0.161000
     18 CAT         -1.2420    -3.6470    -0.1020 ca         1 NP7      -0.169200
     19 CAU         -0.6340    -1.2700     0.0430 ca         1 NP7      -0.035000
     20 CAV          2.2340     1.2760     0.3670 ca         1 NP7      -0.149600
     21 CAW         -1.9950    -0.9180    -0.1020 ca         1 NP7       0.249000
     22 NAX         -3.4170     3.2330     0.0090 n3         1 NP7      -0.718600
     23 NAY         -2.3760     0.4450    -0.0950 nh         1 NP7      -0.800400
     24 HAA         -2.3520     5.0370    -0.3980 h1         1 NP7       0.034033
     25 HAAA        -4.0720     5.0670    -0.8550 h1         1 NP7       0.034033
     26 HAAB        -3.6080     5.1780     0.8560 h1         1 NP7       0.034033
     27 HAF          3.6090     4.9570     0.4520 ha         1 NP7       0.123000
     28 HAG          1.3930     4.4780    -0.5780 ha         1 NP7       0.122000
     29 HAH          4.9430     3.1020     1.4300 ha         1 NP7       0.135000
     30 HAI          0.5210     2.1890    -0.6570 ha         1 NP7       0.119000
     31 HAJ         -3.3750    -4.0320    -0.3610 ha         1 NP7       0.152000
     32 HAK         -4.0110    -1.6510    -0.3530 ha         1 NP7       0.129000
     33 HAL          0.7800    -2.9190     0.1530 ha         1 NP7       0.184000
     34 HAM         -2.7510     3.1490     2.0420 h1         1 NP7       0.040450
     35 HAMA        -1.4670     2.9690     0.8420 h1         1 NP7       0.040450
     36 HAN         -2.1430     2.8020    -1.6530 h1         1 NP7       0.040450
     37 HANA        -3.8610     2.8850    -2.0570 h1         1 NP7       0.040450
     38 HAO         -1.8440     0.8170     1.9460 h1         1 NP7       0.050450
     39 HAOA        -3.5810     0.8770     1.6120 h1         1 NP7       0.050450
     40 HAP         -4.2970     0.7130    -0.9940 h1         1 NP7       0.050450
     41 HAPA        -2.9640     0.5490    -2.1510 h1         1 NP7       0.050450
     42 HNAQ        -0.1580     0.7050     0.1450 hn         1 NP7       0.180000
     43 NAZ         -0.8470    -5.0960    -0.1020 no         1 NP7       0.694200
     44 NAQ          0.2960    -0.1990     0.1670 ns         1 NP7      -0.144000
     45 ClAE         4.5150     0.3500     1.7240 cl         1 NP7      -0.169000
@<TRIPOS>BOND
     1     1    22 1   
     2     1    24 1   
     3     1    25 1   
     4     1    26 1   
     5     2    16 2   
     6     3    43 1   
     7     4    43 1   
     8     5     6 ar  
     9     5     7 ar  
    10     5    27 1   
    11     6     8 ar  
    12     6    28 1   
    13     7    17 ar  
    14     7    29 1   
    15     8    20 ar  
    16     8    30 1   
    17     9    10 ar  
    18     9    18 ar  
    19     9    31 1   
    20    10    21 ar  
    21    10    32 1   
    22    11    18 ar  
    23    11    19 ar  
    24    11    33 1   
    25    12    14 1   
    26    12    22 1   
    27    12    34 1   
    28    12    35 1   
    29    13    15 1   
    30    13    22 1   
    31    13    36 1   
    32    13    37 1   
    33    14    23 1   
    34    14    38 1   
    35    14    39 1   
    36    15    23 1   
    37    15    40 1   
    38    15    41 1   
    39    16    20 1   
    40    16    44 1   
    41    17    20 ar  
    42    17    45 1   
    43    18    43 1   
    44    19    21 ar  
    45    19    44 1   
    46    21    23 1   
    47    42    44 1   
@<TRIPOS>SUBSTRUCTURE
     1 NP7         1 TEMP              0 ****  ****    0 ROOT
