@<TRIPOS>MOLECULE
NP7
   45    47     1     0     0
SMALL
abcg2


@<TRIPOS>ATOM
      1 CAA         -3.5270     4.5460     0.1530 c3         1 NP7       0.153100
      2 OAB          2.2260    -1.0550    -0.6140 o          1 NP7      -0.547100
      3 OAC         -1.6610    -5.7120     0.1530 o          1 NP7      -0.397500
      4 OAD          0.3420    -5.1080    -0.2560 o          1 NP7      -0.397500
      5 CAF          3.4080     3.7920    -0.0420 ca         1 NP7      -0.081000
      6 CAG          2.2650     3.5910    -0.8020 ca         1 NP7      -0.116000
      7 CAH          3.9610     2.7430     0.6790 ca         1 NP7      -0.109000
      8 CAI          1.6770     2.3370    -0.8350 ca         1 NP7      -0.083000
      9 CAJ         -2.5570    -3.1670     0.2670 ca         1 NP7      -0.055000
     10 CAK         -2.9250    -1.8350     0.3320 ca         1 NP7      -0.141000
     11 CAL         -0.2410    -2.4900    -0.0090 ca         1 NP7      -0.067000
     12 CAM         -3.4840     2.4150     1.2460 c6         1 NP7       0.161800
     13 CAN         -2.3070     2.7240    -0.8060 c6         1 NP7       0.161800
     14 CAO         -3.4900     0.9130     1.0330 c6         1 NP7       0.183300
     15 CAP         -2.2920     1.2260    -1.0270 c6         1 NP7       0.183300
     16 CAR          1.5970    -0.0870    -0.2370 c          1 NP7       0.623700
     17 CAS          3.3700     1.4900     0.6280 ca         1 NP7       0.161000
     18 CAT         -1.2200    -3.4720     0.0800 ca         1 NP7      -0.169200
     19 CAU         -0.6180    -1.1600     0.0750 ca         1 NP7      -0.035000
     20 CAV          2.2200     1.2700    -0.1240 ca         1 NP7      -0.149600
     21 CAW         -1.9830    -0.8190     0.2160 ca         1 NP7       0.249000
     22 NAX         -3.4580     3.1140    -0.0220 n3         1 NP7      -0.718600
     23 NAY         -2.3140     0.5380     0.2650 nh         1 NP7      -0.800400
     24 HAA         -2.6670     4.9580     0.7050 h1         1 NP7       0.034033
     25 HAAA        -3.5670     5.0400    -0.8190 h1         1 NP7       0.034033
     26 HAAB        -4.4330     4.8130     0.7000 h1         1 NP7       0.034033
     27 HAF          3.8750     4.7660    -0.0030 ha         1 NP7       0.123000
     28 HAG          1.8340     4.4030    -1.3700 ha         1 NP7       0.122000
     29 HAH          4.8470     2.8990     1.2780 ha         1 NP7       0.135000
     30 HAI          0.7970     2.1770    -1.4470 ha         1 NP7       0.119000
     31 HAJ         -3.3100    -3.9370     0.3380 ha         1 NP7       0.152000
     32 HAK         -3.9700    -1.5880     0.4550 ha         1 NP7       0.129000
     33 HAL          0.7970    -2.7600    -0.1150 ha         1 NP7       0.184000
     34 HAM         -4.3900     2.6950     1.7880 h1         1 NP7       0.040450
     35 HAMA        -2.6260     2.6830     1.8870 h1         1 NP7       0.040450
     36 HAN         -1.3580     3.0290    -0.3260 h1         1 NP7       0.040450
     37 HANA        -2.3480     3.2240    -1.7770 h1         1 NP7       0.040450
     38 HAO         -3.4620     0.4090     2.0000 h1         1 NP7       0.050450
     39 HAOA        -4.4200     0.6230     0.5270 h1         1 NP7       0.050450
     40 HAP         -3.1580     0.9280    -1.6330 h1         1 NP7       0.050450
     41 HAPA        -1.3990     0.9420    -1.5850 h1         1 NP7       0.050450
     42 HNAQ        -0.1170     0.7610     0.4570 hn         1 NP7       0.180000
     43 NAZ         -0.8170    -4.8620    -0.0140 no         1 NP7       0.694200
     44 NAQ          0.2830    -0.0970     0.0940 ns         1 NP7      -0.144000
     45 CLAE         4.0660     0.2130     1.5650 cl         1 NP7      -0.169000
@<TRIPOS>BOND
     1     1    22 1   
     2     1    24 1   
     3     1    25 1   
     4     1    26 1   
     5     2    16 2   
     6     3    43 1   
     7     4    43 1   
     8     5     6 ar  
     9     5     7 ar  
    10     5    27 1   
    11     6     8 ar  
    12     6    28 1   
    13     7    17 ar  
    14     7    29 1   
    15     8    20 ar  
    16     8    30 1   
    17     9    10 ar  
    18     9    18 ar  
    19     9    31 1   
    20    10    21 ar  
    21    10    32 1   
    22    11    18 ar  
    23    11    19 ar  
    24    11    33 1   
    25    12    14 1   
    26    12    22 1   
    27    12    34 1   
    28    12    35 1   
    29    13    15 1   
    30    13    22 1   
    31    13    36 1   
    32    13    37 1   
    33    14    23 1   
    34    14    38 1   
    35    14    39 1   
    36    15    23 1   
    37    15    40 1   
    38    15    41 1   
    39    16    20 1   
    40    16    44 1   
    41    17    20 ar  
    42    17    45 1   
    43    18    43 1   
    44    19    21 ar  
    45    19    44 1   
    46    21    23 1   
    47    42    44 1   
@<TRIPOS>SUBSTRUCTURE
     1 NP7         1 TEMP              0 ****  ****    0 ROOT
