@<TRIPOS>MOLECULE
NP8
   50    53     1     0     0
SMALL
No Charge or Current Charge


@<TRIPOS>ATOM
      1 C01          6.7770    -2.9350     0.9080 c3         1 NP8       0.146900
      2 O05          5.3970    -2.6020     1.1430 os         1 NP8      -0.334100
      3 C06          4.6840    -1.7930     0.2770 ca         1 NP8       0.092100
      4 C07          5.2430    -1.2300    -0.9000 ca         1 NP8       0.253900
      5 N09          4.5420    -0.4420    -1.7510 nb         1 NP8      -0.637000
      6 C10          3.2470    -0.1850    -1.4460 ca         1 NP8       0.305900
      7 C12          2.5910    -0.6830    -0.2890 cp         1 NP8      -0.042000
      8 C13          3.3410    -1.5150     0.5770 ca         1 NP8      -0.107000
      9 C15          1.1540    -0.3850    -0.0130 cp         1 NP8      -0.094000
     10 C16          0.2450    -1.4550     0.1840 ca         1 NP8       0.364900
     11 N18         -1.0760    -1.3010     0.4140 nb         1 NP8      -0.724000
     12 C19         -1.5540    -0.0500     0.4570 ca         1 NP8       0.587900
     13 N20         -2.9190     0.0240     0.7200 nu         1 NP8      -0.915100
     14 C22         -3.9140    -1.0290     0.4360 c6         1 NP8       0.222500
     15 C24         -5.2330    -0.7070     1.1770 c6         1 NP8      -0.093400
     16 C27         -6.3190    -1.7510     0.8290 c6         1 NP8       0.162300
     17 N30         -6.5290    -1.8340    -0.6360 n7         1 NP8      -0.864400
     18 C32         -5.2890    -2.1590    -1.3810 c6         1 NP8       0.162300
     19 C35         -4.1750    -1.1280    -1.0870 c6         1 NP8      -0.093400
     20 C38         -0.7410     1.1040     0.2770 ca         1 NP8      -0.007400
     21 N39         -1.2550     2.4300     0.3060 ns         1 NP8      -0.365100
     22 C41         -0.5520     3.6030     0.1720 c          1 NP8       0.554200
     23 O42         -1.1230     4.6830     0.2150 o          1 NP8      -0.552000
     24 C43          0.9160     3.4240    -0.0210 cc         1 NP8      -0.159400
     25 C44          1.7220     4.6970    -0.1450 c3         1 NP8      -0.042900
     26 C48          1.4630     2.1530    -0.0780 cd         1 NP8      -0.112200
     27 C50          0.6390     0.9390     0.0510 ca         1 NP8      -0.047800
     28 H011         7.1540    -3.5840     1.7080 h1         1 NP8       0.044700
     29 H012         6.8930    -3.4680    -0.0450 h1         1 NP8       0.044700
     30 H013         7.3980    -2.0300     0.8830 h1         1 NP8       0.044700
     31 H07          6.2790    -1.4130    -1.1800 h4         1 NP8       0.023100
     32 H13          2.8870    -1.9320     1.4720 ha         1 NP8       0.137000
     33 H10          2.7060     0.4420    -2.1550 h4         1 NP8       0.027100
     34 H16          0.6000    -2.4840     0.1420 h4         1 NP8       0.026100
     35 H20         -3.2620     0.9320     1.0140 hn         1 NP8       0.470000
     36 H22         -3.5580    -2.0070     0.8000 h1         1 NP8       0.081700
     37 H241        -5.0650    -0.7000     2.2620 hc         1 NP8       0.053700
     38 H242        -5.5910     0.2940     0.9030 hc         1 NP8       0.053700
     39 H351        -4.4680    -0.1480    -1.4860 hc         1 NP8       0.053700
     40 H352        -3.2570    -1.4220    -1.6120 hc         1 NP8       0.053700
     41 H271        -6.0170    -2.7380     1.2120 h1         1 NP8       0.033200
     42 H272        -7.2640    -1.4790     1.3210 h1         1 NP8       0.033200
     43 H30         -7.2340    -2.5570    -0.8320 hn         1 NP8       0.413000
     44 H321        -4.9430    -3.1640    -1.0950 h1         1 NP8       0.033200
     45 H322        -5.5010    -2.1750    -2.4600 h1         1 NP8       0.033200
     46 H39         -2.2550     2.5440     0.3980 hn         1 NP8       0.327500
     47 H441         1.3900     5.2890    -1.0070 hc         1 NP8       0.052700
     48 H442         1.6160     5.3180     0.7530 hc         1 NP8       0.052700
     49 H443         2.7890     4.4860    -0.2790 hc         1 NP8       0.052700
     50 H48          2.5390     2.0650    -0.1930 ha         1 NP8       0.198000
@<TRIPOS>BOND
     1     1     2 1   
     2     1    28 1   
     3     1    29 1   
     4     1    30 1   
     5     2     3 1   
     6     3     4 ar  
     7     3     8 ar  
     8     4     5 ar  
     9     4    31 1   
    10     5     6 ar  
    11     6     7 ar  
    12     6    33 1   
    13     7     8 ar  
    14     7     9 1   
    15     8    32 1   
    16     9    10 ar  
    17     9    27 ar  
    18    10    11 ar  
    19    10    34 1   
    20    11    12 ar  
    21    12    13 1   
    22    12    20 ar  
    23    13    14 1   
    24    13    35 1   
    25    14    15 1   
    26    14    19 1   
    27    14    36 1   
    28    15    16 1   
    29    15    37 1   
    30    15    38 1   
    31    16    17 1   
    32    16    41 1   
    33    16    42 1   
    34    17    18 1   
    35    17    43 1   
    36    18    19 1   
    37    18    44 1   
    38    18    45 1   
    39    19    39 1   
    40    19    40 1   
    41    20    21 1   
    42    20    27 ar  
    43    21    22 1   
    44    21    46 1   
    45    22    23 2   
    46    22    24 1   
    47    24    25 1   
    48    24    26 2   
    49    25    47 1   
    50    25    48 1   
    51    25    49 1   
    52    26    27 1   
    53    26    50 1   
@<TRIPOS>SUBSTRUCTURE
     1 NP8         1 TEMP              0 ****  ****    0 ROOT
