@<TRIPOS>MOLECULE
NP8
   50    53     1     0     0
SMALL
abcg2


@<TRIPOS>ATOM
      1 C01          6.5670    -2.9390     0.8000 c3         1 NP8       0.146900
      2 O05          5.2030    -2.6390     1.0380 os         1 NP8      -0.334100
      3 C06          4.5810    -1.7930     0.2040 ca         1 NP8       0.092100
      4 C07          5.1720    -1.1860    -0.9030 ca         1 NP8       0.253900
      5 N09          4.5060    -0.3550    -1.6970 nb         1 NP8      -0.637000
      6 C10          3.2410    -0.0850    -1.4360 ca         1 NP8       0.305900
      7 C12          2.5530    -0.6310    -0.3470 cp         1 NP8      -0.042000
      8 C13          3.2460    -1.5000     0.4790 ca         1 NP8      -0.107000
      9 C15          1.1290    -0.3320    -0.1170 cp         1 NP8      -0.094000
     10 C16          0.2160    -1.3550    -0.0120 ca         1 NP8       0.364900
     11 N18         -1.1020    -1.1810     0.1230 nb         1 NP8      -0.724000
     12 C19         -1.5990     0.0360     0.1840 ca         1 NP8       0.587900
     13 N20         -2.9450     0.2050     0.3210 nu         1 NP8      -0.915100
     14 C22         -3.8730    -0.9110     0.3030 c6         1 NP8       0.222500
     15 C24         -5.1870    -0.4750     0.9450 c6         1 NP8      -0.093400
     16 C27         -6.2060    -1.6050     0.8940 c6         1 NP8       0.162300
     17 N30         -6.4180    -2.0220    -0.4800 n7         1 NP8      -0.864400
     18 C32         -5.1960    -2.5390    -1.0700 c6         1 NP8       0.162300
     19 C35         -4.1340    -1.4500    -1.1040 c6         1 NP8      -0.093400
     20 C38         -0.7370     1.1700     0.1710 ca         1 NP8      -0.007400
     21 N39         -1.2280     2.4390     0.3450 ns         1 NP8      -0.365100
     22 C41         -0.4880     3.5900     0.3510 c          1 NP8       0.554200
     23 O42         -1.0190     4.6810     0.5140 o          1 NP8      -0.552000
     24 C43          0.9510     3.4050     0.1730 cc         1 NP8      -0.159400
     25 C44          1.8010     4.6300     0.1980 c3         1 NP8      -0.042900
     26 C48          1.4550     2.1620     0.0230 cd         1 NP8      -0.112200
     27 C50          0.6290     0.9890     0.0040 ca         1 NP8      -0.047800
     28 H011         6.8730    -3.6240     1.5860 h1         1 NP8       0.044700
     29 H012         6.7130    -3.4260    -0.1680 h1         1 NP8       0.044700
     30 H013         7.1930    -2.0450     0.8450 h1         1 NP8       0.044700
     31 H07          6.2070    -1.3710    -1.1650 h4         1 NP8       0.023100
     32 H13          2.7650    -1.9430     1.3430 ha         1 NP8       0.137000
     33 H10          2.7310     0.5820    -2.1240 h4         1 NP8       0.027100
     34 H16          0.5500    -2.3850    -0.0750 h4         1 NP8       0.026100
     35 H20         -3.3330     1.0480    -0.0750 hn         1 NP8       0.470000
     36 H22         -3.4380    -1.7090     0.9100 h1         1 NP8       0.081700
     37 H241        -5.0170    -0.1730     1.9810 hc         1 NP8       0.053700
     38 H242        -5.5840     0.3940     0.4100 hc         1 NP8       0.053700
     39 H351        -4.4770    -0.6280    -1.7420 hc         1 NP8       0.053700
     40 H352        -3.2110    -1.8400    -1.5350 hc         1 NP8       0.053700
     41 H271        -5.8510    -2.4300     1.5340 h1         1 NP8       0.033200
     42 H272        -7.1550    -1.2660     1.3140 h1         1 NP8       0.033200
     43 H30         -7.1350    -2.7350    -0.5080 hn         1 NP8       0.413000
     44 H321        -4.7990    -3.4070    -0.5170 h1         1 NP8       0.033200
     45 H322        -5.4090    -2.8830    -2.0840 h1         1 NP8       0.033200
     46 H39         -2.2090     2.5660     0.5480 hn         1 NP8       0.327500
     47 H441         1.5290     5.3150    -0.6070 hc         1 NP8       0.052700
     48 H442         1.6800     5.1780     1.1330 hc         1 NP8       0.052700
     49 H443         2.8530     4.3750     0.0860 hc         1 NP8       0.052700
     50 H48          2.5270     2.0420    -0.0730 ha         1 NP8       0.198000
@<TRIPOS>BOND
     1     1     2 1   
     2     1    28 1   
     3     1    29 1   
     4     1    30 1   
     5     2     3 1   
     6     3     4 ar  
     7     3     8 ar  
     8     4     5 ar  
     9     4    31 1   
    10     5     6 ar  
    11     6     7 ar  
    12     6    33 1   
    13     7     8 ar  
    14     7     9 1   
    15     8    32 1   
    16     9    10 ar  
    17     9    27 ar  
    18    10    11 ar  
    19    10    34 1   
    20    11    12 ar  
    21    12    13 1   
    22    12    20 ar  
    23    13    14 1   
    24    13    35 1   
    25    14    15 1   
    26    14    19 1   
    27    14    36 1   
    28    15    16 1   
    29    15    37 1   
    30    15    38 1   
    31    16    17 1   
    32    16    41 1   
    33    16    42 1   
    34    17    18 1   
    35    17    43 1   
    36    18    19 1   
    37    18    44 1   
    38    18    45 1   
    39    19    39 1   
    40    19    40 1   
    41    20    21 1   
    42    20    27 ar  
    43    21    22 1   
    44    21    46 1   
    45    22    23 2   
    46    22    24 1   
    47    24    25 1   
    48    24    26 2   
    49    25    47 1   
    50    25    48 1   
    51    25    49 1   
    52    26    27 1   
    53    26    50 1   
@<TRIPOS>SUBSTRUCTURE
     1 NP8         1 TEMP              0 ****  ****    0 ROOT
