@<TRIPOS>MOLECULE
NPA
   20    20     1     0     0
SMALL
No Charge or Current Charge


@<TRIPOS>ATOM
      1 C1           0.4630    -0.6550     1.0340 ca         1 NPA      -0.039300
      2 C2          -0.5050    -0.6030     0.0110 ca         1 NPA      -0.041000
      3 C3          -0.1480    -0.2600    -1.3190 ca         1 NPA      -0.295200
      4 C4           1.2090     0.0350    -1.6000 ca         1 NPA       0.204100
      5 C5           2.1680    -0.0150    -0.5790 ca         1 NPA      -0.190000
      6 C6           1.8030    -0.3560     0.7310 ca         1 NPA       0.012000
      7 C7           0.0620    -1.0270     2.4600 c3         1 NPA      -0.190100
      8 C8          -0.2410     0.2490     3.2610 c          1 NPA       0.725000
      9 N1          -1.2180    -0.2210    -2.3720 no         1 NPA       0.708200
     10 O1          -0.8990     0.0940    -3.5270 o          1 NPA      -0.441000
     11 O2          -2.3750    -0.5100    -2.0430 o          1 NPA      -0.441000
     12 O3           1.6340     0.3730    -2.8480 oh         1 NPA      -0.544100
     13 O4           0.6920     0.8170     3.8080 o          1 NPA      -0.721000
     14 O5          -1.3740     0.7040     3.2090 o          1 NPA      -0.721000
     15 H2          -1.5380    -0.8320     0.2660 ha         1 NPA       0.141000
     16 H5           3.2070     0.2140    -0.8030 ha         1 NPA       0.123000
     17 H6           2.5590    -0.3870     1.5120 ha         1 NPA       0.132000
     18 H71          0.9130    -1.5560     2.9060 hc         1 NPA       0.037200
     19 H72         -0.8380    -1.6510     2.3950 hc         1 NPA       0.037200
     20 HO3          0.8390     0.3650    -3.4320 ho         1 NPA       0.505000
@<TRIPOS>BOND
     1     1     2 ar  
     2     1     6 ar  
     3     1     7 1   
     4     2     3 ar  
     5     2    15 1   
     6     3     4 ar  
     7     3     9 1   
     8     4     5 ar  
     9     4    12 1   
    10     5     6 ar  
    11     5    16 1   
    12     6    17 1   
    13     7     8 1   
    14     7    18 1   
    15     7    19 1   
    16     8    13 1   
    17     8    14 1   
    18     9    10 1   
    19     9    11 1   
    20    12    20 1   
@<TRIPOS>SUBSTRUCTURE
     1 NPA         1 TEMP              0 ****  ****    0 ROOT
