@<TRIPOS>MOLECULE
NPA
   20    20     1     0     0
SMALL
bcc


@<TRIPOS>ATOM
      1 C1           0.3330    -0.6280     0.9980 ca         1 NPA      -0.039300
      2 C2          -0.5430    -0.5870    -0.0610 ca         1 NPA      -0.059000
      3 C3          -0.1080    -0.2660    -1.3540 ca         1 NPA      -0.295200
      4 C4           1.2440     0.0220    -1.6150 ca         1 NPA       0.204100
      5 C5           2.1260    -0.0310    -0.5300 ca         1 NPA      -0.208000
      6 C6           1.6810    -0.3400     0.7340 ca         1 NPA      -0.006000
      7 C7          -0.1270    -0.9430     2.3840 c3         1 NPA      -0.190100
      8 C8          -0.1180     0.2720     3.3480 c          1 NPA       0.935600
      9 N1          -1.0780    -0.2390    -2.4070 no         1 NPA       0.328200
     10 O1          -0.7010     0.0430    -3.5390 o          1 NPA      -0.251000
     11 O2          -2.2310    -0.4920    -2.1590 o          1 NPA      -0.251000
     12 O3           1.7510     0.3340    -2.8010 oh         1 NPA      -0.505100
     13 O4           0.4990     1.2890     2.9840 o          1 NPA      -0.826300
     14 O5          -0.7210     0.1010     4.4240 o          1 NPA      -0.826300
     15 H2          -1.5900    -0.8020     0.1050 ha         1 NPA       0.159000
     16 H5           3.1730     0.1790    -0.7080 ha         1 NPA       0.141000
     17 H6           2.4000    -0.3750     1.5410 ha         1 NPA       0.150000
     18 H71          0.5200    -1.7110     2.8230 hc         1 NPA       0.037200
     19 H72         -1.1290    -1.3780     2.3610 hc         1 NPA       0.037200
     20 HO3          1.0320     0.3290    -3.4600 ho         1 NPA       0.466000
@<TRIPOS>BOND
     1     1     2 ar  
     2     1     6 ar  
     3     1     7 1   
     4     2     3 ar  
     5     2    15 1   
     6     3     4 ar  
     7     3     9 1   
     8     4     5 ar  
     9     4    12 1   
    10     5     6 ar  
    11     5    16 1   
    12     6    17 1   
    13     7     8 1   
    14     7    18 1   
    15     7    19 1   
    16     8    13 1   
    17     8    14 1   
    18     9    10 1   
    19     9    11 1   
    20    12    20 1   
@<TRIPOS>SUBSTRUCTURE
     1 NPA         1 TEMP              0 ****  ****    0 ROOT
