@<TRIPOS>MOLECULE
NPC
   39    39     1     0     0
SMALL
bcc


@<TRIPOS>ATOM
      1 C1           2.7780     0.9270     0.5930 ca         1 NPC      -0.113300
      2 C2           3.5350    -0.2020     0.8000 ca         1 NPC      -0.024000
      3 C3           4.8430    -0.2910     0.3090 ca         1 NPC      -0.301200
      4 N3           5.5800    -1.4930     0.5680 no         1 NPC       0.327200
      5 O3A          5.0570    -2.3880     1.1830 o          1 NPC      -0.228500
      6 O3B          6.7290    -1.5690     0.1490 o          1 NPC      -0.228500
      7 C4           5.4210     0.7680    -0.4150 ca         1 NPC       0.239100
      8 O4           6.6490     0.7750    -0.9160 oh         1 NPC      -0.485100
      9 C5           4.6360     1.9080    -0.6170 ca         1 NPC      -0.198000
     10 C6           3.3540     1.9830    -0.1270 ca         1 NPC      -0.005000
     11 C7           1.3740     1.0210     1.1070 c3         1 NPC      -0.115100
     12 C8           0.3420     0.8740    -0.0020 c          1 NPC       0.663100
     13 O8           0.5720     1.2200    -1.1520 o          1 NPC      -0.610100
     14 N9          -0.8380     0.3810     0.3930 ns         1 NPC      -0.565900
     15 C10         -1.9850     0.2500    -0.4830 c3         1 NPC       0.097000
     16 C11         -3.2620     0.0740     0.3220 c3         1 NPC      -0.095400
     17 C12         -4.4910    -0.0390    -0.5700 c3         1 NPC      -0.077400
     18 C13         -5.7830    -0.2030     0.2210 c3         1 NPC      -0.054400
     19 C14         -7.0080    -0.3020    -0.6740 c3         1 NPC      -0.205400
     20 C15         -8.3590    -0.4590     0.0450 c          1 NPC       0.927600
     21 O15         -8.3690    -0.3980     1.2900 o          1 NPC      -0.847300
     22 O16         -9.3540    -0.6290    -0.6930 o          1 NPC      -0.847300
     23 H2           3.1170    -1.0330     1.3510 ha         1 NPC       0.164000
     24 HO4          7.0830    -0.0690    -0.6910 ho         1 NPC       0.477000
     25 H5           5.0640     2.7360    -1.1670 ha         1 NPC       0.159000
     26 H6           2.7860     2.8890    -0.2930 ha         1 NPC       0.153000
     27 H71          1.2040     0.2810     1.8920 hc         1 NPC       0.066200
     28 H72          1.2100     2.0000     1.5670 hc         1 NPC       0.066200
     29 HN9         -0.9390     0.0740     1.3470 hn         1 NPC       0.311500
     30 H101        -2.0610     1.1440    -1.1070 h1         1 NPC       0.051700
     31 H102        -1.8530    -0.5990    -1.1620 h1         1 NPC       0.051700
     32 H111        -3.1820    -0.8220     0.9470 hc         1 NPC       0.039200
     33 H112        -3.3800     0.9210     1.0040 hc         1 NPC       0.039200
     34 H121        -4.5610     0.8530    -1.2030 hc         1 NPC       0.030200
     35 H122        -4.3680    -0.8850    -1.2550 hc         1 NPC       0.030200
     36 H131        -5.7100    -1.0960     0.8490 hc         1 NPC       0.038700
     37 H132        -5.8950     0.6390     0.9090 hc         1 NPC       0.038700
     38 H141        -7.0660     0.5890    -1.3120 hc         1 NPC       0.016200
     39 H142        -6.8890    -1.1380    -1.3720 hc         1 NPC       0.016200
@<TRIPOS>BOND
     1     1     2 ar  
     2     1    10 ar  
     3     1    11 1   
     4     2     3 ar  
     5     2    23 1   
     6     3     4 1   
     7     3     7 ar  
     8     4     5 1   
     9     4     6 1   
    10     7     8 1   
    11     7     9 ar  
    12     8    24 1   
    13     9    10 ar  
    14     9    25 1   
    15    10    26 1   
    16    11    12 1   
    17    11    27 1   
    18    11    28 1   
    19    12    13 2   
    20    12    14 1   
    21    14    15 1   
    22    14    29 1   
    23    15    16 1   
    24    15    30 1   
    25    15    31 1   
    26    16    17 1   
    27    16    32 1   
    28    16    33 1   
    29    17    18 1   
    30    17    34 1   
    31    17    35 1   
    32    18    19 1   
    33    18    36 1   
    34    18    37 1   
    35    19    20 1   
    36    19    38 1   
    37    19    39 1   
    38    20    21 1   
    39    20    22 1   
@<TRIPOS>SUBSTRUCTURE
     1 NPC         1 TEMP              0 ****  ****    0 ROOT
