@<TRIPOS>MOLECULE
NPC
   39    39     1     0     0
SMALL
No Charge or Current Charge


@<TRIPOS>ATOM
      1 C1           2.5920     1.0700     0.8250 ca         1 NPC      -0.113300
      2 C2           3.2670    -0.1580     0.6770 ca         1 NPC      -0.006000
      3 C3           4.5030    -0.2320    -0.0140 ca         1 NPC      -0.301200
      4 N3           5.1820    -1.5640    -0.1440 no         1 NPC       0.707200
      5 O3A          4.6320    -2.5520     0.3550 o          1 NPC      -0.418500
      6 O3B          6.2630    -1.6190    -0.7460 o          1 NPC      -0.418500
      7 C4           5.0480     0.9580    -0.5570 ca         1 NPC       0.239100
      8 O4           6.2290     0.9760    -1.2350 oh         1 NPC      -0.524100
      9 C5           4.3710     2.1750    -0.4080 ca         1 NPC      -0.180000
     10 C6           3.1490     2.2370     0.2770 ca         1 NPC       0.013000
     11 C7           1.2580     1.1340     1.5670 c3         1 NPC      -0.115100
     12 C8           0.0810     1.0190     0.5890 c          1 NPC       0.596100
     13 O8          -0.2820     1.9520    -0.1130 o          1 NPC      -0.610100
     14 N9          -0.5260    -0.2180     0.5470 ns         1 NPC      -0.498900
     15 C10         -1.6760    -0.5570    -0.2940 c3         1 NPC       0.097000
     16 C11         -3.0050    -0.0520     0.3050 c3         1 NPC      -0.095400
     17 C12         -4.2310    -0.4240    -0.5560 c3         1 NPC      -0.077400
     18 C13         -5.5650     0.0780     0.0410 c3         1 NPC      -0.054400
     19 C14         -6.7960    -0.2950    -0.8200 c3         1 NPC      -0.205400
     20 C15         -8.0850     0.2350    -0.1650 c          1 NPC       0.717000
     21 O15         -8.4530     1.3650    -0.4460 o          1 NPC      -0.742000
     22 O16         -8.6560    -0.4800     0.6440 o          1 NPC      -0.742000
     23 H2           2.8180    -1.0530     1.1060 ha         1 NPC       0.146000
     24 HO4          6.5690     0.0500    -1.2470 ho         1 NPC       0.516000
     25 H5           4.7960     3.0820    -0.8300 ha         1 NPC       0.141000
     26 H6           2.6350     3.1910     0.3790 ha         1 NPC       0.135000
     27 H71          1.2110     0.3190     2.2990 hc         1 NPC       0.066200
     28 H72          1.1790     2.0910     2.0940 hc         1 NPC       0.066200
     29 HN9         -0.1510    -0.9320     1.1600 hn         1 NPC       0.311500
     30 H101        -1.5310    -0.1250    -1.2930 h1         1 NPC       0.051700
     31 H102        -1.7170    -1.6500    -0.4020 h1         1 NPC       0.051700
     32 H111        -3.1270    -0.4730     1.3110 hc         1 NPC       0.039200
     33 H112        -2.9600     1.0390     0.4170 hc         1 NPC       0.039200
     34 H121        -4.1050    -0.0030    -1.5610 hc         1 NPC       0.030200
     35 H122        -4.2740    -1.5140    -0.6680 hc         1 NPC       0.030200
     36 H131        -5.6890    -0.3410     1.0480 hc         1 NPC       0.038700
     37 H132        -5.5210     1.1690     0.1540 hc         1 NPC       0.038700
     38 H141        -6.6370     0.1840    -1.7950 hc         1 NPC       0.016200
     39 H142        -6.8110    -1.3910    -0.8640 hc         1 NPC       0.016200
@<TRIPOS>BOND
     1     1     2 ar  
     2     1    10 ar  
     3     1    11 1   
     4     2     3 ar  
     5     2    23 1   
     6     3     4 1   
     7     3     7 ar  
     8     4     5 1   
     9     4     6 1   
    10     7     8 1   
    11     7     9 ar  
    12     8    24 1   
    13     9    10 ar  
    14     9    25 1   
    15    10    26 1   
    16    11    12 1   
    17    11    27 1   
    18    11    28 1   
    19    12    13 2   
    20    12    14 1   
    21    14    15 1   
    22    14    29 1   
    23    15    16 1   
    24    15    30 1   
    25    15    31 1   
    26    16    17 1   
    27    16    32 1   
    28    16    33 1   
    29    17    18 1   
    30    17    34 1   
    31    17    35 1   
    32    18    19 1   
    33    18    36 1   
    34    18    37 1   
    35    19    20 1   
    36    19    38 1   
    37    19    39 1   
    38    20    21 1   
    39    20    22 1   
@<TRIPOS>SUBSTRUCTURE
     1 NPC         1 TEMP              0 ****  ****    0 ROOT
