@<TRIPOS>MOLECULE
NPD
   29    30     1     0     0
SMALL
No Charge or Current Charge


@<TRIPOS>ATOM
      1 CN           1.1660     1.2540     2.5800 c3         1 NPD      -0.084100
      2 CA          -0.0180     0.2760     2.3750 c3         1 NPD      -0.183700
      3 CB           0.3680    -0.9480     1.5000 c3         1 NPD      -0.023100
      4 CG           0.7860    -0.5710     0.0750 ca         1 NPD      -0.067300
      5 CD1          2.1650    -0.5430    -0.2240 ca         1 NPD      -0.106000
      6 CE1          2.6180    -0.2000    -1.5060 ca         1 NPD      -0.108000
      7 CZ1          1.6960     0.1200    -2.5120 ca         1 NPD      -0.096000
      8 CE2          0.3170     0.0970    -2.2390 ca         1 NPD      -0.037000
      9 CZ2         -0.5920     0.4210    -3.2640 ca         1 NPD      -0.099000
     10 CH2         -1.9730     0.4050    -3.0160 ca         1 NPD      -0.107000
     11 CZ3         -2.4490     0.0630    -1.7420 ca         1 NPD      -0.105000
     12 CE3         -1.5490    -0.2620    -0.7140 ca         1 NPD      -0.103000
     13 CD2         -0.1520    -0.2490    -0.9460 ca         1 NPD      -0.026000
     14 C           -0.5710    -0.1910     3.7300 c          1 NPD       0.573900
     15 O           -1.7160     0.0400     4.1050 o          1 NPD      -0.511100
     16 HCN1         2.0150     0.7490     3.0570 hc         1 NPD       0.041700
     17 HCN2         1.5060     1.6660     1.6220 hc         1 NPD       0.041700
     18 HCN3         0.8660     2.0950     3.2170 hc         1 NPD       0.041700
     19 HA          -0.8230     0.8260     1.8740 hc         1 NPD       0.080700
     20 HB1          1.1800    -1.4930     1.9980 hc         1 NPD       0.050700
     21 HB2         -0.4680    -1.6590     1.4710 hc         1 NPD       0.050700
     22 HD11         2.8940    -0.7850     0.5470 ha         1 NPD       0.110000
     23 HE11         3.6840    -0.1820    -1.7190 ha         1 NPD       0.114000
     24 HZ11         2.0560     0.3850    -3.5030 ha         1 NPD       0.114000
     25 HZ21        -0.2300     0.6860    -4.2550 ha         1 NPD       0.113000
     26 HH21        -2.6730     0.6560    -3.8110 ha         1 NPD       0.114000
     27 HZ31        -3.5200     0.0490    -1.5500 ha         1 NPD       0.114000
     28 HE31        -1.9580    -0.5210     0.2570 ha         1 NPD       0.116000
     29 HC           0.1370    -0.7630     4.3690 h4         1 NPD      -0.020800
@<TRIPOS>BOND
     1     1     2 1   
     2     1    16 1   
     3     1    17 1   
     4     1    18 1   
     5     2     3 1   
     6     2    14 1   
     7     2    19 1   
     8     3     4 1   
     9     3    20 1   
    10     3    21 1   
    11     4     5 ar  
    12     4    13 ar  
    13     5     6 ar  
    14     5    22 1   
    15     6     7 ar  
    16     6    23 1   
    17     7     8 ar  
    18     7    24 1   
    19     8     9 ar  
    20     8    13 ar  
    21     9    10 ar  
    22     9    25 1   
    23    10    11 ar  
    24    10    26 1   
    25    11    12 ar  
    26    11    27 1   
    27    12    13 ar  
    28    12    28 1   
    29    14    15 2   
    30    14    29 1   
@<TRIPOS>SUBSTRUCTURE
     1 NPD         1 TEMP              0 ****  ****    0 ROOT
