@<TRIPOS>MOLECULE
NPD
   29    30     1     0     0
SMALL
abcg2


@<TRIPOS>ATOM
      1 CN           1.1290     1.2490     2.5420 c3         1 NPD      -0.084100
      2 CA          -0.0490     0.3020     2.3210 c3         1 NPD      -0.183700
      3 CB           0.3480    -0.9340     1.4860 c3         1 NPD      -0.023100
      4 CG           0.7960    -0.5850     0.0950 ca         1 NPD      -0.067300
      5 CD1          2.1350    -0.5650    -0.2060 ca         1 NPD      -0.106000
      6 CE1          2.6030    -0.2110    -1.4880 ca         1 NPD      -0.108000
      7 CZ1          1.7180     0.1220    -2.4730 ca         1 NPD      -0.096000
      8 CE2          0.3270     0.1070    -2.2160 ca         1 NPD      -0.037000
      9 CZ2         -0.6050     0.4380    -3.2290 ca         1 NPD      -0.099000
     10 CH2         -1.9490     0.4160    -2.9830 ca         1 NPD      -0.107000
     11 CZ3         -2.4230     0.0560    -1.7050 ca         1 NPD      -0.105000
     12 CE3         -1.5450    -0.2660    -0.7050 ca         1 NPD      -0.103000
     13 CD2         -0.1450    -0.2500    -0.9230 ca         1 NPD      -0.026000
     14 C           -0.5350    -0.1790     3.6580 c          1 NPD       0.573900
     15 O           -1.6490    -0.0270     4.0930 o          1 NPD      -0.511100
     16 HCN1         1.9520     0.7440     3.0500 hc         1 NPD       0.041700
     17 HCN2         1.5060     1.6250     1.5920 hc         1 NPD       0.041700
     18 HCN3         0.8360     2.1090     3.1460 hc         1 NPD       0.041700
     19 HA          -0.8670     0.8380     1.8310 hc         1 NPD       0.080700
     20 HB1          1.1590    -1.4600     1.9970 hc         1 NPD       0.050700
     21 HB2         -0.4920    -1.6330     1.4520 hc         1 NPD       0.050700
     22 HD11         2.8530    -0.8240     0.5620 ha         1 NPD       0.110000
     23 HE11         3.6670    -0.2060    -1.6830 ha         1 NPD       0.114000
     24 HZ11         2.0680     0.3990    -3.4600 ha         1 NPD       0.114000
     25 HZ21        -0.2330     0.7120    -4.2090 ha         1 NPD       0.113000
     26 HH21        -2.6520     0.6690    -3.7660 ha         1 NPD       0.114000
     27 HZ31        -3.4880     0.0330    -1.5150 ha         1 NPD       0.114000
     28 HE31        -1.9370    -0.5470     0.2630 ha         1 NPD       0.116000
     29 HC           0.2350    -0.7100     4.2510 h4         1 NPD      -0.020800
@<TRIPOS>BOND
     1     1     2 1   
     2     1    16 1   
     3     1    17 1   
     4     1    18 1   
     5     2     3 1   
     6     2    14 1   
     7     2    19 1   
     8     3     4 1   
     9     3    20 1   
    10     3    21 1   
    11     4     5 ar  
    12     4    13 ar  
    13     5     6 ar  
    14     5    22 1   
    15     6     7 ar  
    16     6    23 1   
    17     7     8 ar  
    18     7    24 1   
    19     8     9 ar  
    20     8    13 ar  
    21     9    10 ar  
    22     9    25 1   
    23    10    11 ar  
    24    10    26 1   
    25    11    12 ar  
    26    11    27 1   
    27    12    13 ar  
    28    12    28 1   
    29    14    15 2   
    30    14    29 1   
@<TRIPOS>SUBSTRUCTURE
     1 NPD         1 TEMP              0 ****  ****    0 ROOT
