@<TRIPOS>MOLECULE
NPE
   32    32     1     0     0
SMALL
No Charge or Current Charge


@<TRIPOS>ATOM
      1 C1          -4.8410     0.2930     0.1730 ca         1 NPE      -0.250200
      2 N1          -6.3390     0.2650     0.1980 no         1 NPE       0.708200
      3 O1N         -6.9070    -0.8280     0.0790 o          1 NPE      -0.446500
      4 O2N         -6.9440     1.3370     0.3360 o          1 NPE      -0.446500
      5 C2          -4.1040    -0.9030     0.0180 ca         1 NPE      -0.032500
      6 C3          -2.6980    -0.8750    -0.0040 ca         1 NPE      -0.173500
      7 C4          -2.0100     0.3490     0.1280 ca         1 NPE       0.286100
      8 C5          -2.7410     1.5350     0.2820 ca         1 NPE      -0.173500
      9 C6          -4.1450     1.5170     0.3050 ca         1 NPE      -0.032500
     10 O3P         -0.6430     0.4460     0.1140 os         1 NPE      -0.462500
     11 P            0.4220    -0.7540    -0.0440 p5         1 NPE       1.375400
     12 O1P          0.3250    -1.4240    -1.3770 o          1 NPE      -0.804500
     13 O2P          0.3630    -1.7170     1.0980 o          1 NPE      -0.804500
     14 C7           1.9660     0.2420     0.0500 c3         1 NPE      -0.430400
     15 C8           3.2790    -0.5690    -0.0650 c3         1 NPE      -0.052400
     16 C9           4.5420     0.3170     0.0200 c3         1 NPE      -0.052400
     17 C10          5.8610    -0.4860    -0.0940 c3         1 NPE      -0.200400
     18 C11          7.0720     0.4610    -0.0010 c          1 NPE       0.715000
     19 O1           7.5290     0.7080     1.1050 o          1 NPE      -0.758000
     20 O2           7.4970     0.9590    -1.0320 o          1 NPE      -0.758000
     21 H2          -4.6110    -1.8610    -0.0860 ha         1 NPE       0.127000
     22 H3          -2.1650    -1.8120    -0.1250 ha         1 NPE       0.144500
     23 H5          -2.2110     2.4780     0.3840 ha         1 NPE       0.144500
     24 H6          -4.6820     2.4560     0.4270 ha         1 NPE       0.127000
     25 H71          1.9360     0.7770     1.0050 hc         1 NPE       0.049700
     26 H72          1.9100     0.9850    -0.7530 hc         1 NPE       0.049700
     27 H81          3.2850    -1.1140    -1.0180 hc         1 NPE       0.031200
     28 H82          3.3110    -1.3200     0.7340 hc         1 NPE       0.031200
     29 H91          4.5340     0.8630     0.9720 hc         1 NPE       0.030200
     30 H92          4.5080     1.0690    -0.7780 hc         1 NPE       0.030200
     31 H101         5.8300    -0.9750    -1.0760 hc         1 NPE       0.013700
     32 H102         5.8570    -1.1890     0.7480 hc         1 NPE       0.013700
@<TRIPOS>BOND
     1     1     2 1   
     2     1     5 ar  
     3     1     9 ar  
     4     2     3 1   
     5     2     4 1   
     6     5     6 ar  
     7     5    21 1   
     8     6     7 ar  
     9     6    22 1   
    10     7     8 ar  
    11     7    10 1   
    12     8     9 ar  
    13     8    23 1   
    14     9    24 1   
    15    10    11 1   
    16    11    12 1   
    17    11    13 1   
    18    11    14 1   
    19    14    15 1   
    20    14    25 1   
    21    14    26 1   
    22    15    16 1   
    23    15    27 1   
    24    15    28 1   
    25    16    17 1   
    26    16    29 1   
    27    16    30 1   
    28    17    18 1   
    29    17    31 1   
    30    17    32 1   
    31    18    19 1   
    32    18    20 1   
@<TRIPOS>SUBSTRUCTURE
     1 NPE         1 TEMP              0 ****  ****    0 ROOT
