@<TRIPOS>MOLECULE
NPE
   32    32     1     0     0
SMALL
abcg2


@<TRIPOS>ATOM
      1 C1          -4.7190     0.1030     0.1670 ca         1 NPE      -0.250200
      2 N1          -6.1490    -0.0450     0.0010 no         1 NPE       0.708200
      3 O1N         -6.7040    -0.9450     0.5900 o          1 NPE      -0.446500
      4 O2N         -6.7260     0.7370    -0.7210 o          1 NPE      -0.446500
      5 C2          -4.0350    -0.7720     1.0020 ca         1 NPE      -0.032500
      6 C3          -2.6710    -0.6270     1.1590 ca         1 NPE      -0.173500
      7 C4          -1.9900     0.3960     0.4960 ca         1 NPE       0.286100
      8 C5          -2.6910     1.2560    -0.3500 ca         1 NPE      -0.173500
      9 C6          -4.0550     1.1190    -0.5100 ca         1 NPE      -0.032500
     10 O3P         -0.6710     0.5600     0.6830 os         1 NPE      -0.462500
     11 P            0.4000    -0.2750    -0.3560 p5         1 NPE       1.375400
     12 O1P          0.1800     0.2640    -1.7420 o          1 NPE      -0.804500
     13 O2P          0.2230    -1.7420    -0.0860 o          1 NPE      -0.804500
     14 C7           1.9460     0.3510     0.3610 c3         1 NPE      -0.430400
     15 C8           3.1640    -0.2810    -0.3110 c3         1 NPE      -0.052400
     16 C9           4.4850     0.2490     0.2350 c3         1 NPE      -0.052400
     17 C10          5.6870    -0.4020    -0.4290 c3         1 NPE      -0.200400
     18 C11          7.0700     0.0640     0.0590 c          1 NPE       0.715000
     19 O1           7.1120     0.9100     0.9740 o          1 NPE      -0.758000
     20 O2           8.0540    -0.4560    -0.5110 o          1 NPE      -0.758000
     21 H2          -4.5510    -1.5650     1.5230 ha         1 NPE       0.127000
     22 H3          -2.1270    -1.2990     1.8080 ha         1 NPE       0.144500
     23 H5          -2.1620     2.0450    -0.8680 ha         1 NPE       0.144500
     24 H6          -4.5880     1.7970    -1.1610 ha         1 NPE       0.127000
     25 H71          1.9660     0.1420     1.4340 hc         1 NPE       0.049700
     26 H72          1.9830     1.4390     0.2490 hc         1 NPE       0.049700
     27 H81          3.1210    -0.1030    -1.3910 hc         1 NPE       0.031200
     28 H82          3.1270    -1.3670    -0.1820 hc         1 NPE       0.031200
     29 H91          4.5210     0.0830     1.3160 hc         1 NPE       0.030200
     30 H92          4.5230     1.3330     0.0960 hc         1 NPE       0.030200
     31 H101         5.6350    -0.2480    -1.5130 hc         1 NPE       0.013700
     32 H102         5.6300    -1.4900    -0.3000 hc         1 NPE       0.013700
@<TRIPOS>BOND
     1     1     2 1   
     2     1     5 ar  
     3     1     9 ar  
     4     2     3 1   
     5     2     4 1   
     6     5     6 ar  
     7     5    21 1   
     8     6     7 ar  
     9     6    22 1   
    10     7     8 ar  
    11     7    10 1   
    12     8     9 ar  
    13     8    23 1   
    14     9    24 1   
    15    10    11 1   
    16    11    12 1   
    17    11    13 1   
    18    11    14 1   
    19    14    15 1   
    20    14    25 1   
    21    14    26 1   
    22    15    16 1   
    23    15    27 1   
    24    15    28 1   
    25    16    17 1   
    26    16    29 1   
    27    16    30 1   
    28    17    18 1   
    29    17    31 1   
    30    17    32 1   
    31    18    19 1   
    32    18    20 1   
@<TRIPOS>SUBSTRUCTURE
     1 NPE         1 TEMP              0 ****  ****    0 ROOT
