@<TRIPOS>MOLECULE
NPF
   35    36     1     0     0
SMALL
bcc


@<TRIPOS>ATOM
      1 C1           1.5750     0.5570    -0.2060 ca         1 NPF       0.212100
      2 C2           1.5010     1.8390    -0.7450 ca         1 NPF      -0.210000
      3 C3           2.6550     2.5150    -1.1070 ca         1 NPF      -0.056000
      4 C4           3.9080     1.9500    -0.9110 ca         1 NPF      -0.168000
      5 C5           4.0010     0.6910    -0.3500 ca         1 NPF      -0.040000
      6 C6           2.8440    -0.0040    -0.0230 ca         1 NPF      -0.210200
      7 N6           2.9990    -1.3470     0.5070 no         1 NPF       0.326200
      8 O6A          3.9300    -1.5430     1.2540 o          1 NPF      -0.207500
      9 O6B          2.2210    -2.2020     0.1590 o          1 NPF      -0.207500
     10 O1           0.5080    -0.1490     0.1980 os         1 NPF      -0.296900
     11 C7          -0.7660     0.1530    -0.2980 c6         1 NPF       0.321900
     12 C8          -1.5970    -1.1230    -0.2020 c6         1 NPF       0.090100
     13 O2          -1.1130    -2.1050    -1.0830 oh         1 NPF      -0.608800
     14 C9          -3.0330    -0.7980    -0.6060 c6         1 NPF       0.168100
     15 O3          -3.8840    -1.9030    -0.4600 oh         1 NPF      -0.572800
     16 C10         -3.5670     0.3600     0.2250 c6         1 NPF       0.124100
     17 O4          -3.6960    -0.0690     1.5570 oh         1 NPF      -0.564800
     18 C11         -2.6080     1.5480     0.0860 c6         1 NPF       0.121100
     19 C12         -3.0140     2.7490     0.9120 c3         1 NPF      -0.093100
     20 O5          -1.2980     1.1690     0.4900 os         1 NPF      -0.418600
     21 H2           0.5470     2.3320    -0.8680 ha         1 NPF       0.155000
     22 H3           2.5680     3.5050    -1.5340 ha         1 NPF       0.140000
     23 H4           4.8060     2.4860    -1.1860 ha         1 NPF       0.149000
     24 H5           4.9680     0.2360    -0.1920 ha         1 NPF       0.165000
     25 H1          -0.6950     0.4670    -1.3540 h2         1 NPF       0.040700
     26 H7          -1.5830    -1.4720     0.8400 h1         1 NPF       0.093700
     27 HO'2        -0.2900    -2.4590    -0.7320 ho         1 NPF       0.441000
     28 H8          -3.0170    -0.4520    -1.6520 h1         1 NPF       0.034700
     29 HO'3        -3.5580    -2.6080    -1.0290 ho         1 NPF       0.423000
     30 H9          -4.5370     0.6680    -0.1930 h1         1 NPF       0.050700
     31 HO'4        -4.2060     0.5860     2.0440 ho         1 NPF       0.406000
     32 H10         -2.5950     1.8400    -0.9750 h1         1 NPF       0.037700
     33 H6'1        -2.3440     3.5880     0.7260 hc         1 NPF       0.051033
     34 H6'2        -4.0220     3.0650     0.6440 hc         1 NPF       0.051033
     35 H6'3        -2.9940     2.5360     1.9820 hc         1 NPF       0.051033
@<TRIPOS>BOND
     1     1     2 ar  
     2     1     6 ar  
     3     1    10 1   
     4     2     3 ar  
     5     2    21 1   
     6     3     4 ar  
     7     3    22 1   
     8     4     5 ar  
     9     4    23 1   
    10     5     6 ar  
    11     5    24 1   
    12     6     7 1   
    13     7     8 1   
    14     7     9 1   
    15    10    11 1   
    16    11    12 1   
    17    11    20 1   
    18    11    25 1   
    19    12    13 1   
    20    12    14 1   
    21    12    26 1   
    22    13    27 1   
    23    14    15 1   
    24    14    16 1   
    25    14    28 1   
    26    15    29 1   
    27    16    17 1   
    28    16    18 1   
    29    16    30 1   
    30    17    31 1   
    31    18    19 1   
    32    18    20 1   
    33    18    32 1   
    34    19    33 1   
    35    19    34 1   
    36    19    35 1   
@<TRIPOS>SUBSTRUCTURE
     1 NPF         1 TEMP              0 ****  ****    0 ROOT
