@<TRIPOS>MOLECULE
NPF
   35    36     1     0     0
SMALL
No Charge or Current Charge


@<TRIPOS>ATOM
      1 C1           1.6240     0.4510    -0.3600 ca         1 NPF       0.212100
      2 C2           1.4790     1.7280    -0.9520 ca         1 NPF      -0.192000
      3 C3           2.5960     2.5570    -1.1460 ca         1 NPF      -0.038000
      4 C4           3.8690     2.1210    -0.7490 ca         1 NPF      -0.150000
      5 C5           4.0300     0.8550    -0.1660 ca         1 NPF      -0.022000
      6 C6           2.9120     0.0120     0.0230 ca         1 NPF      -0.210200
      7 N6           3.1090    -1.3300     0.6320 no         1 NPF       0.706200
      8 O6A          3.9670    -1.4330     1.5190 o          1 NPF      -0.397500
      9 O6B          2.5550    -2.3010     0.0990 o          1 NPF      -0.397500
     10 O1           0.5440    -0.3810    -0.1290 os         1 NPF      -0.320100
     11 C7          -0.8000    -0.0010    -0.4700 c6         1 NPF       0.368300
     12 C8          -1.7500    -1.2350    -0.3180 c6         1 NPF       0.113300
     13 O2          -1.3560    -2.3540    -1.1600 oh         1 NPF      -0.731000
     14 C9          -3.2050    -0.7850    -0.6440 c6         1 NPF       0.191300
     15 O3          -4.1000    -1.9070    -0.5490 oh         1 NPF      -0.635000
     16 C10         -3.6250     0.4030     0.2880 c6         1 NPF       0.147300
     17 O4          -3.6940    -0.0230     1.6730 oh         1 NPF      -0.687000
     18 C11         -2.5690     1.5460     0.0890 c6         1 NPF       0.144300
     19 C12         -2.8190     2.7930     0.9750 c3         1 NPF      -0.093100
     20 O5          -1.2410     1.0650     0.4000 os         1 NPF      -0.465000
     21 H2           0.5080     2.1020    -1.2610 ha         1 NPF       0.137000
     22 H3           2.4750     3.5390    -1.5990 ha         1 NPF       0.122000
     23 H4           4.7340     2.7650    -0.8970 ha         1 NPF       0.131000
     24 H5           5.0260     0.5280     0.1300 ha         1 NPF       0.147000
     25 H1          -0.8260     0.3370    -1.5170 h2         1 NPF       0.040700
     26 H7          -1.7160    -1.5360     0.7410 h1         1 NPF       0.093700
     27 HO'2        -0.4010    -2.5330    -0.9700 ho         1 NPF       0.540000
     28 H8          -3.2140    -0.4130    -1.6800 h1         1 NPF       0.034700
     29 HO'3        -3.5580    -2.6710    -0.8530 ho         1 NPF       0.462000
     30 H9          -4.6080     0.7730    -0.0430 h1         1 NPF       0.050700
     31 HO'4        -4.1030     0.7130     2.1830 ho         1 NPF       0.505000
     32 H10         -2.5880     1.8730    -0.9610 h1         1 NPF       0.037700
     33 H6'1        -2.1010     3.5870     0.7380 hc         1 NPF       0.051033
     34 H6'2        -3.8240     3.1990     0.8100 hc         1 NPF       0.051033
     35 H6'3        -2.7170     2.5620     2.0420 hc         1 NPF       0.051033
@<TRIPOS>BOND
     1     1     2 ar  
     2     1     6 ar  
     3     1    10 1   
     4     2     3 ar  
     5     2    21 1   
     6     3     4 ar  
     7     3    22 1   
     8     4     5 ar  
     9     4    23 1   
    10     5     6 ar  
    11     5    24 1   
    12     6     7 1   
    13     7     8 1   
    14     7     9 1   
    15    10    11 1   
    16    11    12 1   
    17    11    20 1   
    18    11    25 1   
    19    12    13 1   
    20    12    14 1   
    21    12    26 1   
    22    13    27 1   
    23    14    15 1   
    24    14    16 1   
    25    14    28 1   
    26    15    29 1   
    27    16    17 1   
    28    16    18 1   
    29    16    30 1   
    30    17    31 1   
    31    18    19 1   
    32    18    20 1   
    33    18    32 1   
    34    19    33 1   
    35    19    34 1   
    36    19    35 1   
@<TRIPOS>SUBSTRUCTURE
     1 NPF         1 TEMP              0 ****  ****    0 ROOT
