@<TRIPOS>MOLECULE
NPG
   29    29     1     0     0
SMALL
No Charge or Current Charge


@<TRIPOS>ATOM
      1 O61          2.3970    -0.0720     4.3860 o          1 NPG      -0.758000
      2 O62          0.6100    -0.2900     5.5650 o          1 NPG      -0.758000
      3 C6           1.2240    -0.3870     4.5140 c          1 NPG       0.714000
      4 C5           0.4600    -0.8660     3.2660 c3         1 NPG      -0.193400
      5 C4          -0.1780     0.3400     2.5190 c3         1 NPG      -0.135400
      6 O31         -2.0440    -0.6380     1.3160 o          1 NPG      -0.630100
      7 C3          -0.9470    -0.0970     1.2640 c          1 NPG       0.599100
      8 N1          -0.3280     0.1960     0.0700 ns         1 NPG      -0.488900
      9 C2          -2.0310     0.8990    -1.6680 c          1 NPG       0.732000
     10 C1          -0.8940    -0.1010    -1.2690 c3         1 NPG      -0.001000
     11 CG           0.2000    -0.1580    -2.3330 ca         1 NPG      -0.020300
     12 CD1          1.0040     0.9700    -2.6000 ca         1 NPG      -0.104000
     13 CD2          0.4230    -1.3470    -3.0560 ca         1 NPG      -0.104000
     14 CE1          2.0130     0.9090    -3.5780 ca         1 NPG      -0.128500
     15 CE2          1.4310    -1.4070    -4.0340 ca         1 NPG      -0.128500
     16 CZ           2.2260    -0.2790    -4.2950 ca         1 NPG      -0.152000
     17 H51          1.1490    -1.3290     2.5500 hc         1 NPG       0.027700
     18 H52         -0.3750    -1.5150     3.5570 hc         1 NPG       0.027700
     19 H41         -0.8760     0.8410     3.2010 hc         1 NPG       0.051200
     20 H42          0.6250     1.0340     2.2410 hc         1 NPG       0.051200
     21 HN1          0.5690     0.6610     0.1230 hn         1 NPG       0.292500
     22 H1          -1.3630    -1.0910    -1.2090 h1         1 NPG       0.054700
     23 HD1          0.8470     1.8960    -2.0510 ha         1 NPG       0.122500
     24 HD2         -0.1860    -2.2270    -2.8610 ha         1 NPG       0.122500
     25 HE1          2.6270     1.7830    -3.7790 ha         1 NPG       0.084000
     26 HE2          1.5960    -2.3280    -4.5880 ha         1 NPG       0.084000
     27 HZ           3.0060    -0.3260    -5.0510 ha         1 NPG       0.079000
     28 O11         -2.9990     0.4560    -2.2730 o          1 NPG      -0.720000
     29 O12         -1.9090     2.0860    -1.3840 o          1 NPG      -0.720000
@<TRIPOS>BOND
     1     1     3 1   
     2     2     3 1   
     3     3     4 1   
     4     4     5 1   
     5     4    17 1   
     6     4    18 1   
     7     5     7 1   
     8     5    19 1   
     9     5    20 1   
    10     6     7 2   
    11     7     8 1   
    12     8    10 1   
    13     8    21 1   
    14     9    10 1   
    15     9    28 1   
    16     9    29 1   
    17    10    11 1   
    18    10    22 1   
    19    11    12 ar  
    20    11    13 ar  
    21    12    14 ar  
    22    12    23 1   
    23    13    15 ar  
    24    13    24 1   
    25    14    16 ar  
    26    14    25 1   
    27    15    16 ar  
    28    15    26 1   
    29    16    27 1   
@<TRIPOS>SUBSTRUCTURE
     1 NPG         1 TEMP              0 ****  ****    0 ROOT
