@<TRIPOS>MOLECULE
NPG
   29    29     1     0     0
SMALL
bcc


@<TRIPOS>ATOM
      1 O61          1.8430     0.5410     4.6430 o          1 NPG      -0.863300
      2 O62          0.3980    -0.5160     5.9670 o          1 NPG      -0.863300
      3 C6           0.8130    -0.1310     4.8540 c          1 NPG       0.924600
      4 C5          -0.0220    -0.5660     3.6360 c3         1 NPG      -0.193400
      5 C4           0.2240     0.2570     2.3810 c3         1 NPG      -0.135400
      6 O31         -1.7700    -0.5560     1.3030 o          1 NPG      -0.630100
      7 C3          -0.6060    -0.1880     1.1970 c          1 NPG       0.666100
      8 N1           0.0230    -0.1480     0.0120 ns         1 NPG      -0.555900
      9 C2          -1.8370     0.6200    -1.4830 c          1 NPG       0.942600
     10 C1          -0.6740    -0.3870    -1.2290 c3         1 NPG      -0.001000
     11 CG           0.2810    -0.2740    -2.3880 ca         1 NPG      -0.020300
     12 CD1          1.0520     0.8760    -2.5630 ca         1 NPG      -0.122000
     13 CD2          0.3800    -1.2930    -3.3300 ca         1 NPG      -0.122000
     14 CE1          1.9100     0.9940    -3.6470 ca         1 NPG      -0.146500
     15 CE2          1.2320    -1.1730    -4.4200 ca         1 NPG      -0.146500
     16 CZ           2.0030    -0.0300    -4.5810 ca         1 NPG      -0.170000
     17 H51          0.2120    -1.6180     3.4340 hc         1 NPG       0.027700
     18 H52         -1.0810    -0.5480     3.9000 hc         1 NPG       0.027700
     19 H41         -0.0330     1.3050     2.5710 hc         1 NPG       0.051200
     20 H42          1.2850     0.2520     2.1310 hc         1 NPG       0.051200
     21 HN1          0.9770     0.1720    -0.0160 hn         1 NPG       0.292500
     22 H1          -1.0930    -1.3970    -1.2200 h1         1 NPG       0.054700
     23 HD1          0.9710     1.6930    -1.8560 ha         1 NPG       0.140500
     24 HD2         -0.2130    -2.1920    -3.2080 ha         1 NPG       0.140500
     25 HE1          2.5030     1.8930    -3.7660 ha         1 NPG       0.102000
     26 HE2          1.2970    -1.9770    -5.1420 ha         1 NPG       0.102000
     27 HZ           2.6700     0.0630    -5.4280 ha         1 NPG       0.097000
     28 O11         -2.7310     0.1990    -2.2400 o          1 NPG      -0.825300
     29 O12         -1.7360     1.7430    -0.9670 o          1 NPG      -0.825300
@<TRIPOS>BOND
     1     1     3 1   
     2     2     3 1   
     3     3     4 1   
     4     4     5 1   
     5     4    17 1   
     6     4    18 1   
     7     5     7 1   
     8     5    19 1   
     9     5    20 1   
    10     6     7 2   
    11     7     8 1   
    12     8    10 1   
    13     8    21 1   
    14     9    10 1   
    15     9    28 1   
    16     9    29 1   
    17    10    11 1   
    18    10    22 1   
    19    11    12 ar  
    20    11    13 ar  
    21    12    14 ar  
    22    12    23 1   
    23    13    15 ar  
    24    13    24 1   
    25    14    16 ar  
    26    14    25 1   
    27    15    16 ar  
    28    15    26 1   
    29    16    27 1   
@<TRIPOS>SUBSTRUCTURE
     1 NPG         1 TEMP              0 ****  ****    0 ROOT
