@<TRIPOS>MOLECULE
NPH
   40    42     1     0     0
SMALL
bcc


@<TRIPOS>ATOM
      1 N           23.5030    14.0140   -50.0880 n8         1 NPH      -0.895800
      2 CA          22.9130    14.3240   -48.7970 c3         1 NPH       0.023500
      3 CB          23.5900    15.5400   -48.1810 c3         1 NPH       0.064700
      4 SG          25.3150    15.1400   -47.7560 ss         1 NPH      -0.343200
      5 CD          25.8630    16.7910   -47.2670 c3         1 NPH      -0.087300
      6 CE          27.2290    16.7210   -46.6200 c          1 NPH       0.687100
      7 OZ          27.6240    15.7370   -46.0320 o          1 NPH      -0.552100
      8 NZ          27.9420    17.8740   -46.7330 ns         1 NPH      -0.504100
      9 C6          29.1590    18.1280   -46.0810 ca         1 NPH       0.079600
     10 C5          30.1980    17.2620   -46.1640 ca         1 NPH      -0.117000
     11 C6A         29.2810    19.3340   -45.3020 ca         1 NPH      -0.152300
     12 C4A         31.4210    17.5140   -45.4790 ca         1 NPH      -0.124300
     13 C10         30.4950    19.6290   -44.6450 ca         1 NPH       0.368300
     14 C7          28.2250    20.2490   -45.1470 ca         1 NPH      -0.084000
     15 C4          32.4960    16.6110   -45.5390 ca         1 NPH      -0.084000
     16 C1A         31.5950    18.6900   -44.7260 ca         1 NPH       0.347300
     17 N10         30.6690    20.7450   -43.9230 nb         1 NPH      -0.629000
     18 C8          28.4190    21.3840   -44.4020 ca         1 NPH      -0.246300
     19 C3          33.6540    16.9040   -44.8670 ca         1 NPH      -0.245300
     20 N1          32.7340    18.9680   -44.0760 nb         1 NPH      -0.625000
     21 C9          29.6720    21.5900   -43.8140 ca         1 NPH       0.405200
     22 C2          33.7210    18.1040   -44.1460 ca         1 NPH       0.397200
     23 C           21.3760    14.5440   -48.9260 c          1 NPH       0.936600
     24 O           20.8280    14.0390   -49.9240 o          1 NPH      -0.826300
     25 OXT         20.8230    15.1600   -47.9970 o          1 NPH      -0.826300
     26 H           22.8400    13.4470   -50.6010 hn         1 NPH       0.336300
     27 H2          24.3410    13.4600   -49.9730 hn         1 NPH       0.336300
     28 HA          23.0160    13.4900   -48.0790 h1         1 NPH       0.013700
     29 HB2         23.5780    16.3700   -48.8910 h1         1 NPH       0.066200
     30 HB3         23.0720    15.8450   -47.2730 h1         1 NPH       0.066200
     31 HD2         25.8610    17.4650   -48.1270 h1         1 NPH       0.070200
     32 HD3         25.1650    17.2060   -46.5320 h1         1 NPH       0.070200
     33 HZ          27.5170    18.6360   -47.2410 hn         1 NPH       0.321500
     34 H5          30.1220    16.3650   -46.7630 ha         1 NPH       0.159000
     35 H7          27.2590    20.0660   -45.5970 ha         1 NPH       0.139000
     36 H4          32.3990    15.6960   -46.1110 ha         1 NPH       0.143000
     37 H8          27.6260    22.1060   -44.2640 ha         1 NPH       0.141000
     38 H3          34.5030    16.2340   -44.8860 ha         1 NPH       0.138000
     39 H9          29.8530    22.4830   -43.2250 h4         1 NPH       0.017100
     40 HC2         34.6270    18.3580   -43.6080 h4         1 NPH       0.015100
@<TRIPOS>BOND
     1     1     2 1   
     2     1    26 1   
     3     1    27 1   
     4     2     3 1   
     5     2    23 1   
     6     2    28 1   
     7     3     4 1   
     8     3    29 1   
     9     3    30 1   
    10     4     5 1   
    11     5     6 1   
    12     5    31 1   
    13     5    32 1   
    14     6     7 2   
    15     6     8 1   
    16     8     9 1   
    17     8    33 1   
    18     9    10 ar  
    19     9    11 ar  
    20    10    12 ar  
    21    10    34 1   
    22    11    13 ar  
    23    11    14 ar  
    24    12    15 ar  
    25    12    16 ar  
    26    13    16 ar  
    27    13    17 ar  
    28    14    18 ar  
    29    14    35 1   
    30    15    19 ar  
    31    15    36 1   
    32    16    20 ar  
    33    17    21 ar  
    34    18    21 ar  
    35    18    37 1   
    36    19    22 ar  
    37    19    38 1   
    38    20    22 ar  
    39    21    39 1   
    40    22    40 1   
    41    23    24 1   
    42    23    25 1   
@<TRIPOS>SUBSTRUCTURE
     1 NPH         1 TEMP              0 ****  ****    0 ROOT
