@<TRIPOS>MOLECULE
NPH
   40    42     1     0     0
SMALL
No Charge or Current Charge


@<TRIPOS>ATOM
      1 N           23.4040    13.5420   -49.9770 n8         1 NPH      -0.895800
      2 CA          22.6630    14.3850   -48.9580 c3         1 NPH       0.023500
      3 CB          23.5480    15.5670   -48.4810 c3         1 NPH       0.064700
      4 SG          25.1320    14.9730   -47.7150 ss         1 NPH      -0.343200
      5 CD          25.9070    16.6080   -47.2680 c3         1 NPH      -0.087300
      6 CE          27.2870    16.5070   -46.5870 c          1 NPH       0.687100
      7 OZ          27.8220    15.4440   -46.3030 o          1 NPH      -0.552100
      8 NZ          27.8570    17.7340   -46.3020 ns         1 NPH      -0.504100
      9 C6          29.1210    18.0790   -45.7560 ca         1 NPH       0.079600
     10 C5          30.2290    17.2360   -45.9380 ca         1 NPH      -0.117000
     11 C6A         29.2840    19.3010   -45.0610 ca         1 NPH      -0.152300
     12 C4A         31.4880    17.5800   -45.4260 ca         1 NPH      -0.124300
     13 C10         30.5600    19.6740   -44.5340 ca         1 NPH       0.368300
     14 C7          28.1830    20.1690   -44.8640 ca         1 NPH      -0.084000
     15 C4          32.5690    16.7030   -45.6300 ca         1 NPH      -0.084000
     16 C1A         31.6820    18.7960   -44.7170 ca         1 NPH       0.347300
     17 N10         30.7140    20.8550   -43.8590 nb         1 NPH      -0.629000
     18 C8          28.3830    21.3670   -44.1690 ca         1 NPH      -0.246300
     19 C3          33.8210    17.0590   -45.1160 ca         1 NPH      -0.245300
     20 N1          32.9210    19.1140   -44.2270 nb         1 NPH      -0.625000
     21 C9          29.6580    21.6720   -43.6870 ca         1 NPH       0.405200
     22 C2          33.9540    18.2680   -44.4230 ca         1 NPH       0.397200
     23 C           21.2040    14.8850   -49.3540 c          1 NPH       0.936600
     24 O           20.2660    14.1020   -49.2240 o          1 NPH      -0.826300
     25 OXT         21.0450    16.0320   -49.7650 o          1 NPH      -0.826300
     26 H           22.9050    12.6550   -50.1090 hn         1 NPH       0.336300
     27 H2          24.3100    13.2740   -49.5790 hn         1 NPH       0.336300
     28 HA          22.5230    13.7360   -48.0840 h1         1 NPH       0.013700
     29 HB2         23.7820    16.2240   -49.3280 h1         1 NPH       0.066200
     30 HB3         23.0000    16.1540   -47.7330 h1         1 NPH       0.066200
     31 HD2         26.0270    17.2070   -48.1780 h1         1 NPH       0.070200
     32 HD3         25.2380    17.1490   -46.5880 h1         1 NPH       0.070200
     33 HZ          27.2810    18.5230   -46.5650 hn         1 NPH       0.321500
     34 H5          30.1250    16.3110   -46.4980 ha         1 NPH       0.159000
     35 H7          27.1850    19.9340   -45.2270 ha         1 NPH       0.139000
     36 H4          32.4420    15.7670   -46.1730 ha         1 NPH       0.143000
     37 H8          27.5620    22.0570   -43.9990 ha         1 NPH       0.141000
     38 H3          34.6850    16.4120   -45.2480 ha         1 NPH       0.138000
     39 H9          29.8410    22.5970   -43.1420 h4         1 NPH       0.017100
     40 HC2         34.9150    18.5710   -44.0110 h4         1 NPH       0.015100
@<TRIPOS>BOND
     1     1     2 1   
     2     1    26 1   
     3     1    27 1   
     4     2     3 1   
     5     2    23 1   
     6     2    28 1   
     7     3     4 1   
     8     3    29 1   
     9     3    30 1   
    10     4     5 1   
    11     5     6 1   
    12     5    31 1   
    13     5    32 1   
    14     6     7 2   
    15     6     8 1   
    16     8     9 1   
    17     8    33 1   
    18     9    10 ar  
    19     9    11 ar  
    20    10    12 ar  
    21    10    34 1   
    22    11    13 ar  
    23    11    14 ar  
    24    12    15 ar  
    25    12    16 ar  
    26    13    16 ar  
    27    13    17 ar  
    28    14    18 ar  
    29    14    35 1   
    30    15    19 ar  
    31    15    36 1   
    32    16    20 ar  
    33    17    21 ar  
    34    18    21 ar  
    35    18    37 1   
    36    19    22 ar  
    37    19    38 1   
    38    20    22 ar  
    39    21    39 1   
    40    22    40 1   
    41    23    24 1   
    42    23    25 1   
@<TRIPOS>SUBSTRUCTURE
     1 NPH         1 TEMP              0 ****  ****    0 ROOT
