@<TRIPOS>MOLECULE
NPI
   23    22     1     0     0
SMALL
No Charge or Current Charge


@<TRIPOS>ATOM
      1 CA          13.3300     4.5230     1.3190 c3         1 NPI       0.012500
      2 CB          13.4150     5.6590     0.2620 c3         1 NPI      -0.045400
      3 C4          13.9210     5.1950    -1.1260 c3         1 NPI      -0.077400
      4 C5          13.9350     6.3310    -2.1740 c3         1 NPI      -0.056400
      5 C6          14.4380     5.8710    -3.5650 c3         1 NPI      -0.198400
      6 C           14.7390     3.8100     1.5330 c          1 NPI       0.903600
      7 O           14.8490     2.6250     1.2360 o          1 NPI      -0.851300
      8 OXT         15.6300     4.4200     2.1180 o          1 NPI      -0.851300
      9 N           12.6370     5.0380     2.5600 n8         1 NPI      -0.888800
     10 C7          14.4230     7.0490    -4.5610 c          1 NPI       0.924600
     11 O71         13.4020     7.2580    -5.2060 o          1 NPI      -0.865800
     12 O72         15.4160     7.7610    -4.6430 o          1 NPI      -0.865800
     13 HA          12.6640     3.7560     0.9020 h1         1 NPI       0.033700
     14 H31         12.4210     6.1060     0.1380 hc         1 NPI       0.019700
     15 H32         14.0740     6.4530     0.6350 hc         1 NPI       0.019700
     16 H41         14.9350     4.7890    -1.0310 hc         1 NPI       0.036700
     17 H42         13.2800     4.3810    -1.4870 hc         1 NPI       0.036700
     18 H51         12.9220     6.7400    -2.2760 hc         1 NPI       0.026700
     19 H52         14.5730     7.1470    -1.8120 hc         1 NPI       0.026700
     20 H61         15.4650     5.5150    -3.4100 hc         1 NPI       0.014700
     21 H62         13.7440     5.0860    -3.8900 hc         1 NPI       0.014700
     22 H           12.5140     4.2640     3.2220 hn         1 NPI       0.315800
     23 H2          13.2710     5.6830     3.0440 hn         1 NPI       0.315800
@<TRIPOS>BOND
     1     1     2 1   
     2     1     6 1   
     3     1     9 1   
     4     1    13 1   
     5     2     3 1   
     6     2    14 1   
     7     2    15 1   
     8     3     4 1   
     9     3    16 1   
    10     3    17 1   
    11     4     5 1   
    12     4    18 1   
    13     4    19 1   
    14     5    10 1   
    15     5    20 1   
    16     5    21 1   
    17     6     7 1   
    18     6     8 1   
    19     9    22 1   
    20     9    23 1   
    21    10    11 1   
    22    10    12 1   
@<TRIPOS>SUBSTRUCTURE
     1 NPI         1 TEMP              0 ****  ****    0 ROOT
