@<TRIPOS>MOLECULE
NPI
   23    22     1     0     0
SMALL
bcc


@<TRIPOS>ATOM
      1 CA          13.3200     4.5470     1.3140 c3         1 NPI       0.012500
      2 CB          13.5390     5.6700     0.2960 c3         1 NPI      -0.045400
      3 C4          13.9190     5.2100    -1.1060 c3         1 NPI      -0.077400
      4 C5          13.9650     6.3580    -2.1070 c3         1 NPI      -0.056400
      5 C6          14.2990     5.9010    -3.5190 c3         1 NPI      -0.198400
      6 C           14.6310     3.7540     1.5220 c          1 NPI       0.903600
      7 O           14.7830     2.7100     0.8540 o          1 NPI      -0.851300
      8 OXT         15.4480     4.2450     2.3300 o          1 NPI      -0.851300
      9 N           12.7770     5.1320     2.5390 n8         1 NPI      -0.888800
     10 C7          14.3590     7.0070    -4.5910 c          1 NPI       0.924600
     11 O71         14.3030     6.6230    -5.7780 o          1 NPI      -0.865800
     12 O72         14.4810     8.1860    -4.2000 o          1 NPI      -0.865800
     13 HA          12.5610     3.8720     0.9040 h1         1 NPI       0.033700
     14 H31         12.6140     6.2520     0.2400 hc         1 NPI       0.019700
     15 H32         14.3060     6.3530     0.6800 hc         1 NPI       0.019700
     16 H41         14.8890     4.7040    -1.0910 hc         1 NPI       0.036700
     17 H42         13.1970     4.4590    -1.4460 hc         1 NPI       0.036700
     18 H51         12.9980     6.8720    -2.1070 hc         1 NPI       0.026700
     19 H52         14.6970     7.1000    -1.7760 hc         1 NPI       0.026700
     20 H61         15.2700     5.3880    -3.5120 hc         1 NPI       0.014700
     21 H62         13.5810     5.1380    -3.8380 hc         1 NPI       0.014700
     22 H           12.5140     4.3810     3.1680 hn         1 NPI       0.315800
     23 H2          13.5470     5.5960     3.0110 hn         1 NPI       0.315800
@<TRIPOS>BOND
     1     1     2 1   
     2     1     6 1   
     3     1     9 1   
     4     1    13 1   
     5     2     3 1   
     6     2    14 1   
     7     2    15 1   
     8     3     4 1   
     9     3    16 1   
    10     3    17 1   
    11     4     5 1   
    12     4    18 1   
    13     4    19 1   
    14     5    10 1   
    15     5    20 1   
    16     5    21 1   
    17     6     7 1   
    18     6     8 1   
    19     9    22 1   
    20     9    23 1   
    21    10    11 1   
    22    10    12 1   
@<TRIPOS>SUBSTRUCTURE
     1 NPI         1 TEMP              0 ****  ****    0 ROOT
