@<TRIPOS>MOLECULE
NPJ
   57    59     1     0     0
SMALL
No Charge or Current Charge


@<TRIPOS>ATOM
      1 C1A         -3.4210    -0.5040     0.4810 c6         1 NPJ       0.357300
      2 C2A         -4.2470    -0.8700    -0.8010 c6         1 NPJ       0.127300
      3 C3A         -4.5030     0.4180    -1.6340 c6         1 NPJ       0.129300
      4 C4A         -5.1750     1.5100    -0.7520 c6         1 NPJ       0.147300
      5 C5A         -4.2820     1.7810     0.5000 c6         1 NPJ       0.167300
      6 C6A         -4.9210     2.8260     1.4740 c3         1 NPJ       0.168600
      7 O1A         -2.0790    -0.0790     0.1550 os         1 NPJ      -0.478000
      8 O2A         -3.5970    -1.8720    -1.6230 oh         1 NPJ      -0.733000
      9 O3A         -5.3180     0.1150    -2.7820 oh         1 NPJ      -0.668000
     10 O4A         -5.3890     2.6960    -1.5400 oh         1 NPJ      -0.719000
     11 O5A         -4.0680     0.5420     1.2340 os         1 NPJ      -0.454000
     12 O6A         -4.1360     3.0570     2.6640 oh         1 NPJ      -0.721000
     13 C1B          1.7300    -1.8850     0.9760 c6         1 NPJ       0.360300
     14 C2B          0.4970    -2.8530     0.8500 c6         1 NPJ       0.119300
     15 C3B         -0.6510    -2.1270     0.0950 c6         1 NPJ       0.149300
     16 C4B         -1.0140    -0.7950     0.8260 c6         1 NPJ       0.154300
     17 C5B          0.2660     0.0830     0.9280 c6         1 NPJ       0.161300
     18 C6B          0.0020     1.4140     1.7070 c3         1 NPJ       0.167600
     19 O2B          0.7970    -4.1000     0.1680 oh         1 NPJ      -0.703000
     20 O3B         -1.7700    -3.0250    -0.0480 oh         1 NPJ      -0.739000
     21 O5B          1.3200    -0.6510     1.6130 os         1 NPJ      -0.451000
     22 O6B          1.1830     2.2280     1.8650 oh         1 NPJ      -0.715000
     23 C1C          5.9050     0.5260    -0.8550 ca         1 NPJ      -0.222200
     24 C2C          5.4600     0.2360     0.4560 ca         1 NPJ      -0.009000
     25 C3C          4.2630    -0.4730     0.6600 ca         1 NPJ      -0.179500
     26 C4C          3.4920    -0.8990    -0.4420 ca         1 NPJ       0.192100
     27 C5C          3.9350    -0.6130    -1.7410 ca         1 NPJ      -0.179500
     28 C6C          5.1300     0.0940    -1.9550 ca         1 NPJ      -0.009000
     29 O2C          7.8270     1.6370    -0.0810 o          1 NPJ      -0.406500
     30 O3C          7.5290     1.5130    -2.2390 o          1 NPJ      -0.406500
     31 H1A         -3.3800    -1.4040     1.1150 h2         1 NPJ       0.083700
     32 H2A         -5.2190    -1.2550    -0.4560 h1         1 NPJ       0.064700
     33 H3A         -3.5260     0.8010    -1.9670 h1         1 NPJ       0.062700
     34 H4A         -6.1430     1.1210    -0.4020 h1         1 NPJ       0.051700
     35 H5A         -3.3100     2.1760     0.1730 h1         1 NPJ       0.071700
     36 H6A1        -5.9230     2.4670     1.7470 h1         1 NPJ       0.038700
     37 H6A2        -5.0530     3.7690     0.9260 h1         1 NPJ       0.038700
     38 HO2A        -2.8940    -2.2960    -1.0440 ho         1 NPJ       0.536000
     39 HO3A        -5.0010    -0.7690    -3.0830 ho         1 NPJ       0.466000
     40 HO4A        -5.6610     2.3580    -2.4280 ho         1 NPJ       0.527000
     41 HO6A        -4.6560     3.6690     3.2360 ho         1 NPJ       0.505000
     42 H1B          2.4850    -2.3790     1.6050 h2         1 NPJ       0.082700
     43 H2B          0.1500    -3.0690     1.8720 h1         1 NPJ       0.061700
     44 H3B         -0.2730    -1.8590    -0.9040 h1         1 NPJ       0.080700
     45 H4B         -1.3370    -1.0240     1.8530 h1         1 NPJ       0.062700
     46 H5B          0.6080     0.3470    -0.0830 h1         1 NPJ       0.080700
     47 H6B1        -0.7720     1.9780     1.1680 h1         1 NPJ       0.045200
     48 H6B2        -0.4130     1.1550     2.6910 h1         1 NPJ       0.045200
     49 HO2B         1.5630    -4.5210     0.6280 ho         1 NPJ       0.515000
     50 HO3B        -1.3410    -3.9190    -0.0940 ho         1 NPJ       0.532000
     51 HO6B         0.9290     3.0010     2.4220 ho         1 NPJ       0.510000
     52 H2C          6.0360     0.5560     1.3240 ha         1 NPJ       0.151000
     53 H3C          3.9530    -0.6750     1.6800 ha         1 NPJ       0.142500
     54 H5C          3.3440    -0.9440    -2.5920 ha         1 NPJ       0.142500
     55 H6C          5.4450     0.3000    -2.9770 ha         1 NPJ       0.151000
     56 O1B          2.3110    -1.6030    -0.3150 os         1 NPJ      -0.359100
     57 N1C          7.1800     1.2810    -1.0740 no         1 NPJ       0.701200
@<TRIPOS>BOND
     1     1     2 1   
     2     1     7 1   
     3     1    11 1   
     4     1    31 1   
     5     2     3 1   
     6     2     8 1   
     7     2    32 1   
     8     3     4 1   
     9     3     9 1   
    10     3    33 1   
    11     4     5 1   
    12     4    10 1   
    13     4    34 1   
    14     5     6 1   
    15     5    11 1   
    16     5    35 1   
    17     6    12 1   
    18     6    36 1   
    19     6    37 1   
    20     7    16 1   
    21     8    38 1   
    22     9    39 1   
    23    10    40 1   
    24    12    41 1   
    25    13    14 1   
    26    13    21 1   
    27    13    42 1   
    28    13    56 1   
    29    14    15 1   
    30    14    19 1   
    31    14    43 1   
    32    15    16 1   
    33    15    20 1   
    34    15    44 1   
    35    16    17 1   
    36    16    45 1   
    37    17    18 1   
    38    17    21 1   
    39    17    46 1   
    40    18    22 1   
    41    18    47 1   
    42    18    48 1   
    43    19    49 1   
    44    20    50 1   
    45    22    51 1   
    46    23    24 ar  
    47    23    28 ar  
    48    23    57 1   
    49    24    25 ar  
    50    24    52 1   
    51    25    26 ar  
    52    25    53 1   
    53    26    27 ar  
    54    26    56 1   
    55    27    28 ar  
    56    27    54 1   
    57    28    55 1   
    58    29    57 1   
    59    30    57 1   
@<TRIPOS>SUBSTRUCTURE
     1 NPJ         1 TEMP              0 ****  ****    0 ROOT
