@<TRIPOS>MOLECULE
NPJ
   57    59     1     0     0
SMALL
bcc


@<TRIPOS>ATOM
      1 C1A         -3.4030    -0.5650     0.4860 c6         1 NPJ       0.310900
      2 C2A         -4.2670    -0.8700    -0.7410 c6         1 NPJ       0.104100
      3 C3A         -4.4020     0.3730    -1.6110 c6         1 NPJ       0.106100
      4 C4A         -4.9150     1.5380    -0.7730 c6         1 NPJ       0.124100
      5 C5A         -3.9900     1.7460     0.4240 c6         1 NPJ       0.144100
      6 C6A         -4.5000     2.8170     1.3640 c3         1 NPJ       0.145400
      7 O1A         -2.0790    -0.3770     0.0760 os         1 NPJ      -0.431600
      8 O2A         -3.7670    -1.9280    -1.5180 oh         1 NPJ      -0.610800
      9 O3A         -5.3190     0.1790    -2.6650 oh         1 NPJ      -0.605800
     10 O4A         -4.9500     2.7330    -1.5140 oh         1 NPJ      -0.596800
     11 O5A         -3.8930     0.5430     1.1730 os         1 NPJ      -0.407600
     12 O6A         -3.5500     3.0140     2.3850 oh         1 NPJ      -0.598800
     13 C1B          1.6990    -1.7550     1.0190 c6         1 NPJ       0.313900
     14 C2B          0.6250    -2.8270     0.8270 c6         1 NPJ       0.096100
     15 C3B         -0.5730    -2.2340     0.0990 c6         1 NPJ       0.126100
     16 C4B         -1.0640    -0.9930     0.8350 c6         1 NPJ       0.131100
     17 C5B          0.0830     0.0020     1.0300 c6         1 NPJ       0.138100
     18 C6B         -0.3120     1.1570     1.9250 c3         1 NPJ       0.144400
     19 O2B          1.0900    -3.9240     0.0910 oh         1 NPJ      -0.580800
     20 O3B         -1.6430    -3.1550     0.0450 oh         1 NPJ      -0.616800
     21 O5B          1.1820    -0.6430     1.6610 os         1 NPJ      -0.404600
     22 O6B          0.7610     2.0650     1.9820 oh         1 NPJ      -0.592800
     23 C1C          5.7030     0.6090    -0.8960 ca         1 NPJ      -0.222200
     24 C2C          5.2240     0.5180     0.4020 ca         1 NPJ      -0.027000
     25 C3C          4.0430    -0.1540     0.6570 ca         1 NPJ      -0.197500
     26 C4C          3.3460    -0.7510    -0.3960 ca         1 NPJ       0.192100
     27 C5C          3.8360    -0.6440    -1.7010 ca         1 NPJ      -0.197500
     28 C6C          5.0090     0.0310    -1.9540 ca         1 NPJ      -0.027000
     29 O2C          7.5130     1.8220    -0.2150 o          1 NPJ      -0.216500
     30 O3C          7.3380     1.3710    -2.2930 o          1 NPJ      -0.216500
     31 H1A         -3.4710    -1.3960     1.1970 h2         1 NPJ       0.083700
     32 H2A         -5.2660    -1.1230    -0.3530 h1         1 NPJ       0.064700
     33 H3A         -3.4110     0.6410    -2.0060 h1         1 NPJ       0.062700
     34 H4A         -5.9180     1.2780    -0.3960 h1         1 NPJ       0.051700
     35 H5A         -2.9990     2.0450     0.0540 h1         1 NPJ       0.071700
     36 H6A1        -5.4740     2.5060     1.7660 h1         1 NPJ       0.038700
     37 H6A2        -4.6660     3.7310     0.7850 h1         1 NPJ       0.038700
     38 HO2A        -3.1190    -2.4410    -1.0080 ho         1 NPJ       0.437000
     39 HO3A        -4.9100    -0.3920    -3.3230 ho         1 NPJ       0.427000
     40 HO4A        -5.4860     2.5790    -2.2990 ho         1 NPJ       0.428000
     41 HO6A        -3.8690     3.7230     2.9510 ho         1 NPJ       0.406000
     42 H1B          2.5050    -2.1330     1.6580 h2         1 NPJ       0.082700
     43 H2B          0.3030    -3.1250     1.8340 h1         1 NPJ       0.061700
     44 H3B         -0.2730    -1.9400    -0.9170 h1         1 NPJ       0.080700
     45 H4B         -1.4420    -1.2920     1.8230 h1         1 NPJ       0.062700
     46 H5B          0.3800     0.3990     0.0490 h1         1 NPJ       0.080700
     47 H6B1        -1.2140     1.6260     1.5220 h1         1 NPJ       0.045200
     48 H6B2        -0.5730     0.7630     2.9180 h1         1 NPJ       0.045200
     49 HO2B         1.5790    -4.5110     0.6750 ho         1 NPJ       0.416000
     50 HO3B        -1.3550    -3.9300    -0.4520 ho         1 NPJ       0.433000
     51 HO6B         0.4760     2.8280     2.4920 ho         1 NPJ       0.411000
     52 H2C          5.7550     0.9730     1.2260 ha         1 NPJ       0.169000
     53 H3C          3.6820    -0.1860     1.6730 ha         1 NPJ       0.160500
     54 H5C          3.2890    -1.1020    -2.5140 ha         1 NPJ       0.160500
     55 H6C          5.3730     0.1010    -2.9690 ha         1 NPJ       0.169000
     56 O1B          2.2070    -1.4450    -0.2620 os         1 NPJ      -0.335900
     57 N1C          6.9370     1.3160    -1.1520 no         1 NPJ       0.321200
@<TRIPOS>BOND
     1     1     2 1   
     2     1     7 1   
     3     1    11 1   
     4     1    31 1   
     5     2     3 1   
     6     2     8 1   
     7     2    32 1   
     8     3     4 1   
     9     3     9 1   
    10     3    33 1   
    11     4     5 1   
    12     4    10 1   
    13     4    34 1   
    14     5     6 1   
    15     5    11 1   
    16     5    35 1   
    17     6    12 1   
    18     6    36 1   
    19     6    37 1   
    20     7    16 1   
    21     8    38 1   
    22     9    39 1   
    23    10    40 1   
    24    12    41 1   
    25    13    14 1   
    26    13    21 1   
    27    13    42 1   
    28    13    56 1   
    29    14    15 1   
    30    14    19 1   
    31    14    43 1   
    32    15    16 1   
    33    15    20 1   
    34    15    44 1   
    35    16    17 1   
    36    16    45 1   
    37    17    18 1   
    38    17    21 1   
    39    17    46 1   
    40    18    22 1   
    41    18    47 1   
    42    18    48 1   
    43    19    49 1   
    44    20    50 1   
    45    22    51 1   
    46    23    24 ar  
    47    23    28 ar  
    48    23    57 1   
    49    24    25 ar  
    50    24    52 1   
    51    25    26 ar  
    52    25    53 1   
    53    26    27 ar  
    54    26    56 1   
    55    27    28 ar  
    56    27    54 1   
    57    28    55 1   
    58    29    57 1   
    59    30    57 1   
@<TRIPOS>SUBSTRUCTURE
     1 NPJ         1 TEMP              0 ****  ****    0 ROOT
