@<TRIPOS>MOLECULE
NPK
   55    58     1     0     0
SMALL
abcg2


@<TRIPOS>ATOM
      1 N1           0.1450     0.6280    -0.1800 n          1 NPK      -0.388400
      2 S1           3.7580     2.1230     0.1220 ss         1 NPK      -0.394000
      3 C2           3.5940     0.3100     0.0230 c5         1 NPK       0.061300
      4 N2           1.5550    -1.0380    -0.4600 ns         1 NPK      -0.514900
      5 C3           0.3030    -0.7640    -0.0500 c          1 NPK       0.634000
      6 O3          -0.5180    -1.5560     0.3510 o          1 NPK      -0.549000
      7 C4           2.3440     0.1000    -0.8440 c5         1 NPK       0.097700
      8 C5           1.3610     1.2800    -0.6470 c5         1 NPK       0.107700
      9 C6           1.9680     2.2690     0.3520 c5         1 NPK       0.036600
     10 C7           4.8360    -0.3550    -0.5420 c3         1 NPK      -0.062400
     11 C8           6.0900    -0.1490     0.2970 c3         1 NPK      -0.082400
     12 C9           7.3010    -0.8790    -0.2720 c3         1 NPK      -0.052400
     13 C10          8.5590    -0.6550     0.5480 c3         1 NPK      -0.205400
     14 C11          9.8280    -1.3690     0.0490 c          1 NPK       0.717000
     15 O11          9.7250    -2.1090    -0.9500 o          1 NPK      -0.741500
     16 O12         10.8720    -1.1490     0.7000 o          1 NPK      -0.741500
     17 C30         -0.9980     1.3720    -0.0390 c          1 NPK       0.669100
     18 O31         -1.0030     2.5680    -0.2160 o          1 NPK      -0.523000
     19 O32         -2.0490     0.6460     0.2890 os         1 NPK      -0.432100
     20 C33         -3.2970     1.3200     0.5160 c3         1 NPK       0.241600
     21 C34         -3.3540     1.8150     1.9540 c3         1 NPK      -0.111100
     22 C35         -4.3710     0.2870     0.2460 ca         1 NPK      -0.014300
     23 C36         -4.0900    -1.0410     0.6050 ca         1 NPK      -0.083000
     24 C37         -5.0500    -1.9950     0.3870 ca         1 NPK       0.095100
     25 C38         -6.2730    -1.6950    -0.1950 ca         1 NPK       0.044100
     26 C39         -6.5840    -0.4240    -0.5770 ca         1 NPK      -0.054000
     27 C40         -5.6130     0.5620    -0.3300 ca         1 NPK      -0.174200
     28 N40         -5.9900     1.9040    -0.7260 no         1 NPK       0.694200
     29 O44         -4.9920    -3.3070     0.6580 os         1 NPK      -0.325100
     30 C45         -6.2540    -3.8640     0.2950 c5         1 NPK       0.374600
     31 O46         -7.0100    -2.8170    -0.3030 os         1 NPK      -0.337100
     32 O54         -6.7680     2.0240    -1.6440 o          1 NPK      -0.398500
     33 O55         -5.5280     2.8420    -0.1150 o          1 NPK      -0.398500
     34 H2           3.3970    -0.0660     1.0330 h1         1 NPK       0.079700
     35 HN2          1.8970    -1.9850    -0.4850 hn         1 NPK       0.355500
     36 H4           2.6490     0.0300    -1.8910 h1         1 NPK       0.081700
     37 H5           1.1770     1.7820    -1.5960 h1         1 NPK       0.087700
     38 H6           1.7040     1.9970     1.3750 h1         1 NPK       0.085700
     39 H6A          1.6560     3.2940     0.1690 h1         1 NPK       0.085700
     40 H7           4.6340    -1.4290    -0.6240 hc         1 NPK       0.045700
     41 H7A          5.0030     0.0060    -1.5620 hc         1 NPK       0.045700
     42 H8           6.3130     0.9220     0.3680 hc         1 NPK       0.035700
     43 H8A          5.9020    -0.4860     1.3220 hc         1 NPK       0.035700
     44 H9           7.0830    -1.9490    -0.3310 hc         1 NPK       0.038700
     45 H9A          7.4650    -0.5500    -1.3030 hc         1 NPK       0.038700
     46 H10          8.7730     0.4180     0.6110 hc         1 NPK       0.017200
     47 H10A         8.3820    -0.9660     1.5850 hc         1 NPK       0.017200
     48 H33         -3.3690     2.1550    -0.1760 h1         1 NPK       0.098700
     49 H34         -3.1960     0.9920     2.6520 hc         1 NPK       0.057700
     50 H34A        -2.5960     2.5770     2.1350 hc         1 NPK       0.057700
     51 H34B        -4.3270     2.2530     2.1620 hc         1 NPK       0.057700
     52 H36         -3.1330    -1.3140     1.0260 ha         1 NPK       0.183000
     53 H39         -7.5340    -0.1850    -1.0310 ha         1 NPK       0.165000
     54 H45         -6.1060    -4.6710    -0.4230 h2         1 NPK       0.071700
     55 H45A        -6.7640    -4.2290     1.1900 h2         1 NPK       0.071700
@<TRIPOS>BOND
     1     1     5 1   
     2     1     8 1   
     3     1    17 1   
     4     2     3 1   
     5     2     9 1   
     6     3     7 1   
     7     3    10 1   
     8     3    34 1   
     9     4     5 1   
    10     4     7 1   
    11     4    35 1   
    12     5     6 2   
    13     7     8 1   
    14     7    36 1   
    15     8     9 1   
    16     8    37 1   
    17     9    38 1   
    18     9    39 1   
    19    10    11 1   
    20    10    40 1   
    21    10    41 1   
    22    11    12 1   
    23    11    42 1   
    24    11    43 1   
    25    12    13 1   
    26    12    44 1   
    27    12    45 1   
    28    13    14 1   
    29    13    46 1   
    30    13    47 1   
    31    14    15 1   
    32    14    16 1   
    33    17    18 2   
    34    17    19 1   
    35    19    20 1   
    36    20    21 1   
    37    20    22 1   
    38    20    48 1   
    39    21    49 1   
    40    21    50 1   
    41    21    51 1   
    42    22    23 ar  
    43    22    27 ar  
    44    23    24 ar  
    45    23    52 1   
    46    24    25 ar  
    47    24    29 1   
    48    25    26 ar  
    49    25    31 1   
    50    26    27 ar  
    51    26    53 1   
    52    27    28 1   
    53    28    32 1   
    54    28    33 1   
    55    29    30 1   
    56    30    31 1   
    57    30    54 1   
    58    30    55 1   
@<TRIPOS>SUBSTRUCTURE
     1 NPK         1 TEMP              0 ****  ****    0 ROOT
