@<TRIPOS>MOLECULE
NPK
   55    58     1     0     0
SMALL
No Charge or Current Charge


@<TRIPOS>ATOM
      1 N1           0.1890     0.8140    -0.3720 n          1 NPK      -0.388400
      2 S1           3.7940     2.1910     0.3310 ss         1 NPK      -0.394000
      3 C2           3.6150     0.4050    -0.0940 c5         1 NPK       0.061300
      4 N2           1.6530    -0.8270    -0.7650 ns         1 NPK      -0.514900
      5 C3           0.3870    -0.5550    -0.3550 c          1 NPK       0.634000
      6 O3          -0.4100    -1.4220    -0.0450 o          1 NPK      -0.549000
      7 C4           2.4230     0.3720    -1.1110 c5         1 NPK       0.097700
      8 C5           1.4160     1.5420    -0.7610 c5         1 NPK       0.107700
      9 C6           1.9630     2.2330     0.5290 c5         1 NPK       0.036600
     10 C7           4.9350    -0.1820    -0.6510 c3         1 NPK      -0.062400
     11 C8           6.0930    -0.2450     0.3730 c3         1 NPK      -0.082400
     12 C9           7.3780    -0.8790    -0.2050 c3         1 NPK      -0.052400
     13 C10          8.5380    -0.9440     0.8180 c3         1 NPK      -0.205400
     14 C11          9.7800    -1.5870     0.1740 c          1 NPK       0.717000
     15 O11          9.8960    -2.8020     0.2320 o          1 NPK      -0.741500
     16 O12         10.5700    -0.8590    -0.4080 o          1 NPK      -0.741500
     17 C30         -1.0000     1.5270    -0.1700 c          1 NPK       0.669100
     18 O31         -1.0670     2.7440    -0.2680 o          1 NPK      -0.523000
     19 O32         -2.0710     0.7240     0.1050 os         1 NPK      -0.432100
     20 C33         -3.3440     1.3210     0.4190 c3         1 NPK       0.241600
     21 C34         -3.2820     1.8490     1.8700 c3         1 NPK      -0.111100
     22 C35         -4.4330     0.2440     0.2630 ca         1 NPK      -0.014300
     23 C36         -4.1430    -1.0730     0.7040 ca         1 NPK      -0.083000
     24 C37         -5.1040    -2.0730     0.5400 ca         1 NPK       0.095100
     25 C38         -6.3140    -1.8170    -0.0310 ca         1 NPK       0.044100
     26 C39         -6.6580    -0.5380    -0.4750 ca         1 NPK      -0.054000
     27 C40         -5.7160     0.5130    -0.3230 ca         1 NPK      -0.174200
     28 N40         -6.1130     1.8780    -0.7830 no         1 NPK       0.694200
     29 O44         -4.9710    -3.3710     0.9150 os         1 NPK      -0.325100
     30 C45         -6.2370    -3.9710     0.4640 c5         1 NPK       0.374600
     31 O46         -7.1050    -2.9190    -0.0910 os         1 NPK      -0.337100
     32 O54         -6.7800     1.9610    -1.8220 o          1 NPK      -0.398500
     33 O55         -5.9080     2.8300    -0.0210 o          1 NPK      -0.398500
     34 H2           3.3560    -0.1340     0.8290 h1         1 NPK       0.079700
     35 HN2          1.9530    -1.7910    -0.8400 hn         1 NPK       0.355500
     36 H4           2.7440     0.4040    -2.1620 h1         1 NPK       0.081700
     37 H5           1.2720     2.2380    -1.6000 h1         1 NPK       0.087700
     38 H6           1.6900     1.6800     1.4380 h1         1 NPK       0.085700
     39 H6A          1.5990     3.2640     0.6330 h1         1 NPK       0.085700
     40 H7           4.7450    -1.1990    -1.0160 hc         1 NPK       0.045700
     41 H7A          5.2590     0.4020    -1.5220 hc         1 NPK       0.045700
     42 H8           6.3240     0.7680     0.7260 hc         1 NPK       0.035700
     43 H8A          5.7670    -0.8220     1.2470 hc         1 NPK       0.035700
     44 H9           7.1510    -1.8940    -0.5580 hc         1 NPK       0.038700
     45 H9A          7.7010    -0.3030    -1.0810 hc         1 NPK       0.038700
     46 H10          8.7470     0.0950     1.1010 hc         1 NPK       0.017200
     47 H10A         8.1730    -1.5630     1.6480 hc         1 NPK       0.017200
     48 H33         -3.5450     2.1520    -0.2690 h1         1 NPK       0.098700
     49 H34         -2.9900     1.0500     2.5620 hc         1 NPK       0.057700
     50 H34A        -2.5620     2.6700     1.9650 hc         1 NPK       0.057700
     51 H34B        -4.2630     2.2260     2.1810 hc         1 NPK       0.057700
     52 H36         -3.1850    -1.3180     1.1570 ha         1 NPK       0.183000
     53 H39         -7.6380    -0.3650    -0.9160 ha         1 NPK       0.165000
     54 H45         -6.0260    -4.7120    -0.3160 h2         1 NPK       0.071700
     55 H45A        -6.7380    -4.4520     1.3120 h2         1 NPK       0.071700
@<TRIPOS>BOND
     1     1     5 1   
     2     1     8 1   
     3     1    17 1   
     4     2     3 1   
     5     2     9 1   
     6     3     7 1   
     7     3    10 1   
     8     3    34 1   
     9     4     5 1   
    10     4     7 1   
    11     4    35 1   
    12     5     6 2   
    13     7     8 1   
    14     7    36 1   
    15     8     9 1   
    16     8    37 1   
    17     9    38 1   
    18     9    39 1   
    19    10    11 1   
    20    10    40 1   
    21    10    41 1   
    22    11    12 1   
    23    11    42 1   
    24    11    43 1   
    25    12    13 1   
    26    12    44 1   
    27    12    45 1   
    28    13    14 1   
    29    13    46 1   
    30    13    47 1   
    31    14    15 1   
    32    14    16 1   
    33    17    18 2   
    34    17    19 1   
    35    19    20 1   
    36    20    21 1   
    37    20    22 1   
    38    20    48 1   
    39    21    49 1   
    40    21    50 1   
    41    21    51 1   
    42    22    23 ar  
    43    22    27 ar  
    44    23    24 ar  
    45    23    52 1   
    46    24    25 ar  
    47    24    29 1   
    48    25    26 ar  
    49    25    31 1   
    50    26    27 ar  
    51    26    53 1   
    52    27    28 1   
    53    28    32 1   
    54    28    33 1   
    55    29    30 1   
    56    30    31 1   
    57    30    54 1   
    58    30    55 1   
@<TRIPOS>SUBSTRUCTURE
     1 NPK         1 TEMP              0 ****  ****    0 ROOT
