@<TRIPOS>MOLECULE
NPM
   49    52     1     0     0
SMALL
abcg2


@<TRIPOS>ATOM
      1 N11         -6.7400    -1.9220     0.7650 nb         1 NPM      -0.622000
      2 N12         -4.5990    -0.1620     0.5110 ne         1 NPM      -0.523600
      3 N13          4.5920    -0.1790    -0.4920 ne         1 NPM      -0.523600
      4 N14          6.7310    -1.9410    -0.7520 nb         1 NPM      -0.622000
      5 C1A         -7.7930    -2.7150     0.8580 ca         1 NPM       0.334400
      6 C1B         -8.9530    -2.5480     0.1070 ca         1 NPM      -0.155000
      7 C1C         -9.0080    -1.4950    -0.7880 ca         1 NPM      -0.078000
      8 C1D         -7.9080    -0.6570    -0.8930 ca         1 NPM      -0.145000
      9 C1E         -6.7950    -0.9060    -0.0960 ca         1 NPM       0.295700
     10 C1F         -5.6320    -0.0150    -0.2080 cf         1 NPM       0.367200
     11 C1G         -3.4990     0.6790     0.3350 ca         1 NPM       0.117400
     12 C1H         -2.7640     1.0300     1.4670 ca         1 NPM      -0.104250
     13 C1I         -1.6620     1.8600     1.3620 ca         1 NPM      -0.100000
     14 C1J         -1.2390     2.3400     0.1260 ca         1 NPM      -0.075300
     15 C1K         -1.9600     1.9660    -1.0040 ca         1 NPM      -0.100000
     16 C1L         -3.0760     1.1500    -0.9090 ca         1 NPM      -0.104250
     17 C1M          0.0040     3.1860     0.0090 c3         1 NPM       0.016200
     18 C1N          1.2400     2.3310    -0.1070 ca         1 NPM      -0.075300
     19 C1O          1.6600     1.8470    -1.3430 ca         1 NPM      -0.100000
     20 C1P          2.7580     1.0130    -1.4480 ca         1 NPM      -0.104250
     21 C1Q          3.4920     0.6620    -0.3150 ca         1 NPM       0.117400
     22 C1R          3.0710     1.1350     0.9290 ca         1 NPM      -0.104250
     23 C1S          1.9580     1.9540     1.0240 ca         1 NPM      -0.100000
     24 C1T          5.6240    -0.0360     0.2280 cf         1 NPM       0.367200
     25 C1U          6.7870    -0.9280     0.1120 ca         1 NPM       0.295700
     26 C1V          7.9010    -0.6840     0.9100 ca         1 NPM      -0.145000
     27 C1W          8.9990    -1.5230     0.8020 ca         1 NPM      -0.078000
     28 C1X          8.9430    -2.5730    -0.0970 ca         1 NPM      -0.155000
     29 C1Y          7.7830    -2.7340    -0.8480 ca         1 NPM       0.334400
     30 H1A         -7.7210    -3.5330     1.5650 h4         1 NPM       0.022100
     31 H1B         -9.7830    -3.2290     0.2290 ha         1 NPM       0.124500
     32 H1C         -9.8880    -1.3260    -1.3940 ha         1 NPM       0.121000
     33 H1D         -7.9130     0.1770    -1.5810 ha         1 NPM       0.122000
     34 H1F         -5.7280     0.7900    -0.9430 h4         1 NPM      -0.026200
     35 H1H         -3.0750     0.6560     2.4340 ha         1 NPM       0.122000
     36 H1I         -1.1200     2.1300     2.2610 ha         1 NPM       0.112000
     37 H1K         -1.6440     2.3110    -1.9820 ha         1 NPM       0.112000
     38 H1L         -3.5950     0.8570    -1.8130 ha         1 NPM       0.122000
     39 H1M1        -0.0750     3.8400    -0.8620 hc         1 NPM       0.053700
     40 H1M2         0.0890     3.8400     0.8790 hc         1 NPM       0.053700
     41 H1O          1.1200     2.1210    -2.2420 ha         1 NPM       0.112000
     42 H1P          3.0680     0.6360    -2.4130 ha         1 NPM       0.122000
     43 H1R          3.5910     0.8400     1.8310 ha         1 NPM       0.122000
     44 H1S          1.6390     2.3010     2.0000 ha         1 NPM       0.112000
     45 H1T          5.7210     0.7660     0.9680 h4         1 NPM      -0.026200
     46 H1V          7.9050     0.1480     1.6010 ha         1 NPM       0.122000
     47 H1W          9.8800    -1.3570     1.4090 ha         1 NPM       0.121000
     48 H1X          9.7720    -3.2560    -0.2210 ha         1 NPM       0.124500
     49 H1Y          7.7070    -3.5490    -1.5590 h4         1 NPM       0.022100
@<TRIPOS>BOND
     1     1     5 ar  
     2     1     9 ar  
     3     2    10 2   
     4     2    11 1   
     5     3    21 1   
     6     3    24 2   
     7     4    25 ar  
     8     4    29 ar  
     9     5     6 ar  
    10     5    30 1   
    11     6     7 ar  
    12     6    31 1   
    13     7     8 ar  
    14     7    32 1   
    15     8     9 ar  
    16     8    33 1   
    17     9    10 1   
    18    10    34 1   
    19    11    12 ar  
    20    11    16 ar  
    21    12    13 ar  
    22    12    35 1   
    23    13    14 ar  
    24    13    36 1   
    25    14    15 ar  
    26    14    17 1   
    27    15    16 ar  
    28    15    37 1   
    29    16    38 1   
    30    17    18 1   
    31    17    39 1   
    32    17    40 1   
    33    18    19 ar  
    34    18    23 ar  
    35    19    20 ar  
    36    19    41 1   
    37    20    21 ar  
    38    20    42 1   
    39    21    22 ar  
    40    22    23 ar  
    41    22    43 1   
    42    23    44 1   
    43    24    25 1   
    44    24    45 1   
    45    25    26 ar  
    46    26    27 ar  
    47    26    46 1   
    48    27    28 ar  
    49    27    47 1   
    50    28    29 ar  
    51    28    48 1   
    52    29    49 1   
@<TRIPOS>SUBSTRUCTURE
     1 NPM         1 TEMP              0 ****  ****    0 ROOT
