@<TRIPOS>MOLECULE
NPM
   49    52     1     0     0
SMALL
No Charge or Current Charge


@<TRIPOS>ATOM
      1 N11         -7.2160    -2.0230     0.3510 nb         1 NPM      -0.622000
      2 N12         -4.7460    -0.4610     0.0780 ne         1 NPM      -0.523600
      3 N13          4.7390    -0.4750    -0.0620 ne         1 NPM      -0.523600
      4 N14          7.2040    -2.0450    -0.3390 nb         1 NPM      -0.622000
      5 C1A         -8.3810    -2.7070     0.2820 ca         1 NPM       0.334400
      6 C1B         -9.5920    -2.1130    -0.1080 ca         1 NPM      -0.155000
      7 C1C         -9.6070    -0.7510    -0.4440 ca         1 NPM      -0.078000
      8 C1D         -8.3990    -0.0380    -0.3730 ca         1 NPM      -0.145000
      9 C1E         -7.2160    -0.6960     0.0310 ca         1 NPM       0.295700
     10 C1F         -5.9400     0.0780     0.0900 cf         1 NPM       0.367200
     11 C1G         -3.5870     0.3320     0.0610 ca         1 NPM       0.117400
     12 C1H         -2.9870     0.7320     1.2680 ca         1 NPM      -0.104250
     13 C1I         -1.8280     1.5280     1.2520 ca         1 NPM      -0.100000
     14 C1J         -1.2580     1.9290     0.0290 ca         1 NPM      -0.075300
     15 C1K         -1.8580     1.5220    -1.1790 ca         1 NPM      -0.100000
     16 C1L         -3.0180     0.7270    -1.1610 ca         1 NPM      -0.104250
     17 C1M          0.0010     2.7850     0.0110 c3         1 NPM       0.016200
     18 C1N          1.2580     1.9260    -0.0090 ca         1 NPM      -0.075300
     19 C1O          1.8270     1.5250    -1.2330 ca         1 NPM      -0.100000
     20 C1P          2.9840     0.7260    -1.2500 ca         1 NPM      -0.104250
     21 C1Q          3.5820     0.3200    -0.0450 ca         1 NPM       0.117400
     22 C1R          3.0140     0.7150     1.1790 ca         1 NPM      -0.104250
     23 C1S          1.8570     1.5140     1.1980 ca         1 NPM      -0.100000
     24 C1T          5.9350     0.0590    -0.0730 cf         1 NPM       0.367200
     25 C1U          7.2080    -0.7180    -0.0150 ca         1 NPM       0.295700
     26 C1V          8.3930    -0.0650     0.3910 ca         1 NPM      -0.145000
     27 C1W          9.5990    -0.7820     0.4600 ca         1 NPM      -0.078000
     28 C1X          9.5800    -2.1430     0.1210 ca         1 NPM      -0.155000
     29 C1Y          8.3670    -2.7320    -0.2700 ca         1 NPM       0.334400
     30 H1A         -8.3410    -3.7630     0.5460 h4         1 NPM       0.022100
     31 H1B        -10.5020    -2.7060    -0.1480 ha         1 NPM       0.124500
     32 H1C        -10.5290    -0.2600    -0.7520 ha         1 NPM       0.121000
     33 H1D         -8.3760     1.0180    -0.6290 ha         1 NPM       0.122000
     34 H1F         -6.0500     1.1650     0.0180 h4         1 NPM      -0.026200
     35 H1H         -3.4200     0.4260     2.2170 ha         1 NPM       0.122000
     36 H1I         -1.3720     1.8300     2.1930 ha         1 NPM       0.112000
     37 H1K         -1.4260     1.8200    -2.1310 ha         1 NPM       0.112000
     38 H1L         -3.4740     0.4170    -2.0980 ha         1 NPM       0.122000
     39 H1M1        -0.0110     3.4520    -0.8600 hc         1 NPM       0.053700
     40 H1M2         0.0160     3.4500     0.8830 hc         1 NPM       0.053700
     41 H1O          1.3720     1.8300    -2.1730 ha         1 NPM       0.112000
     42 H1P          3.4160     0.4200    -2.2000 ha         1 NPM       0.122000
     43 H1R          3.4690     0.4020     2.1150 ha         1 NPM       0.122000
     44 H1S          1.4250     1.8110     2.1510 ha         1 NPM       0.112000
     45 H1T          6.0480     1.1470     0.0020 h4         1 NPM      -0.026200
     46 H1V          8.3730     0.9910     0.6490 ha         1 NPM       0.122000
     47 H1W         10.5220    -0.2950     0.7700 ha         1 NPM       0.121000
     48 H1X         10.4870    -2.7390     0.1600 ha         1 NPM       0.124500
     49 H1Y          8.3240    -3.7880    -0.5380 h4         1 NPM       0.022100
@<TRIPOS>BOND
     1     1     5 ar  
     2     1     9 ar  
     3     2    10 2   
     4     2    11 1   
     5     3    21 1   
     6     3    24 2   
     7     4    25 ar  
     8     4    29 ar  
     9     5     6 ar  
    10     5    30 1   
    11     6     7 ar  
    12     6    31 1   
    13     7     8 ar  
    14     7    32 1   
    15     8     9 ar  
    16     8    33 1   
    17     9    10 1   
    18    10    34 1   
    19    11    12 ar  
    20    11    16 ar  
    21    12    13 ar  
    22    12    35 1   
    23    13    14 ar  
    24    13    36 1   
    25    14    15 ar  
    26    14    17 1   
    27    15    16 ar  
    28    15    37 1   
    29    16    38 1   
    30    17    18 1   
    31    17    39 1   
    32    17    40 1   
    33    18    19 ar  
    34    18    23 ar  
    35    19    20 ar  
    36    19    41 1   
    37    20    21 ar  
    38    20    42 1   
    39    21    22 ar  
    40    22    23 ar  
    41    22    43 1   
    42    23    44 1   
    43    24    25 1   
    44    24    45 1   
    45    25    26 ar  
    46    26    27 ar  
    47    26    46 1   
    48    27    28 ar  
    49    27    47 1   
    50    28    29 ar  
    51    28    48 1   
    52    29    49 1   
@<TRIPOS>SUBSTRUCTURE
     1 NPM         1 TEMP              0 ****  ****    0 ROOT
