@<TRIPOS>MOLECULE
NPN
   12    11     1     0     0
SMALL
bcc


@<TRIPOS>ATOM
      1 C           -2.4640     0.3180    -0.0080 c1         1 NPN       0.417800
      2 N           -1.3830    -0.1080    -0.0060 n1         1 NPN      -0.840300
      3 C1          -0.0490    -0.5960    -0.0070 c3         1 NPN       0.278100
      4 C2           0.9710     0.5360     0.0180 c3         1 NPN      -0.092400
      5 C3           2.3890    -0.0130     0.0140 c3         1 NPN      -0.091100
      6 H11          0.0810    -1.2140    -0.8970 h1         1 NPN       0.055700
      7 H12          0.0720    -1.2450     0.8610 h1         1 NPN       0.055700
      8 H21          0.8070     1.1480     0.9080 hc         1 NPN       0.052700
      9 H22          0.8140     1.1820    -0.8480 hc         1 NPN       0.052700
     10 H31          3.1160     0.7980     0.0370 hc         1 NPN       0.037700
     11 H32          2.5730    -0.6480     0.8810 hc         1 NPN       0.037700
     12 H33          2.5830    -0.6070    -0.8810 hc         1 NPN       0.037700
@<TRIPOS>BOND
     1     1     2 3   
     2     2     3 1   
     3     3     4 1   
     4     3     6 1   
     5     3     7 1   
     6     4     5 1   
     7     4     8 1   
     8     4     9 1   
     9     5    10 1   
    10     5    11 1   
    11     5    12 1   
@<TRIPOS>SUBSTRUCTURE
     1 NPN         1 TEMP              0 ****  ****    0 ROOT
