@<TRIPOS>MOLECULE
NPN
   12    11     1     0     0
SMALL
No Charge or Current Charge


@<TRIPOS>ATOM
      1 C           -2.5010     0.3510    -0.0030 c1         1 NPN       0.507000
      2 N           -1.4060    -0.0600    -0.0060 n1         1 NPN      -0.929500
      3 C1          -0.0740    -0.6300    -0.0100 c3         1 NPN       0.278100
      4 C2           0.9680     0.5100     0.0180 c3         1 NPN      -0.092400
      5 C3           2.4220    -0.0020     0.0150 c3         1 NPN      -0.091100
      6 H11          0.0600    -1.2410    -0.9150 h1         1 NPN       0.055700
      7 H12          0.0510    -1.2760     0.8710 h1         1 NPN       0.055700
      8 H21          0.8090     1.1260     0.9120 hc         1 NPN       0.052700
      9 H22          0.8180     1.1600    -0.8530 hc         1 NPN       0.052700
     10 H31          3.1250     0.8400     0.0350 hc         1 NPN       0.037700
     11 H32          2.6150    -0.6300     0.8940 hc         1 NPN       0.037700
     12 H33          2.6240    -0.5950    -0.8860 hc         1 NPN       0.037700
@<TRIPOS>BOND
     1     1     2 3   
     2     2     3 1   
     3     3     4 1   
     4     3     6 1   
     5     3     7 1   
     6     4     5 1   
     7     4     8 1   
     8     4     9 1   
     9     5    10 1   
    10     5    11 1   
    11     5    12 1   
@<TRIPOS>SUBSTRUCTURE
     1 NPN         1 TEMP              0 ****  ****    0 ROOT
