@<TRIPOS>MOLECULE
NPO
   15    15     1     0     0
SMALL
No Charge or Current Charge


@<TRIPOS>ATOM
      1 C1          -0.0140    -0.0220    -0.6420 ca         1 NPO      -0.196200
      2 C2           1.1710     0.0670     0.1270 ca         1 NPO      -0.025000
      3 C3           1.1030     0.1280     1.5310 ca         1 NPO      -0.159000
      4 C4          -0.1420     0.1020     2.1780 ca         1 NPO       0.161100
      5 C5          -1.3200     0.0140     1.4250 ca         1 NPO      -0.159000
      6 C6          -1.2640    -0.0480     0.0220 ca         1 NPO      -0.025000
      7 OH          -0.2150     0.1610     3.5380 oh         1 NPO      -0.552100
      8 N1           0.0540    -0.0880    -2.1370 no         1 NPO       0.697200
      9 O2          -1.0090    -0.1650    -2.7690 o          1 NPO      -0.399500
     10 O3           1.1690    -0.0620    -2.6750 o          1 NPO      -0.399500
     11 H2           2.1490     0.0890    -0.3540 ha         1 NPO       0.153500
     12 H3           2.0230     0.1960     2.1070 ha         1 NPO       0.137500
     13 H5          -2.2830    -0.0060     1.9290 ha         1 NPO       0.137500
     14 H6          -2.1940    -0.1160    -0.5410 ha         1 NPO       0.153500
     15 HO           0.6960     0.2190     3.8980 ho         1 NPO       0.476000
@<TRIPOS>BOND
     1     1     2 ar  
     2     1     6 ar  
     3     1     8 1   
     4     2     3 ar  
     5     2    11 1   
     6     3     4 ar  
     7     3    12 1   
     8     4     5 ar  
     9     4     7 1   
    10     5     6 ar  
    11     5    13 1   
    12     6    14 1   
    13     7    15 1   
    14     8     9 1   
    15     8    10 1   
@<TRIPOS>SUBSTRUCTURE
     1 NPO         1 TEMP              0 ****  ****    0 ROOT
