@<TRIPOS>MOLECULE
NPO
   15    15     1     0     0
SMALL
abcg2


@<TRIPOS>ATOM
      1 C1          -0.0030    -0.0180    -0.6160 ca         1 NPO      -0.196200
      2 C2           1.1920    -0.0030     0.0920 ca         1 NPO      -0.025000
      3 C3           1.1550     0.0010     1.4730 ca         1 NPO      -0.159000
      4 C4          -0.0670    -0.0040     2.1450 ca         1 NPO       0.161100
      5 C5          -1.2550    -0.0170     1.4190 ca         1 NPO      -0.159000
      6 C6          -1.2270    -0.0310     0.0370 ca         1 NPO      -0.025000
      7 OH          -0.1150    -0.0350     3.4980 oh         1 NPO      -0.552100
      8 N1           0.0300    -0.0130    -2.0650 no         1 NPO       0.697200
      9 O2          -1.0220    -0.0330    -2.6600 o          1 NPO      -0.399500
     10 O3           1.1100    -0.0600    -2.6100 o          1 NPO      -0.399500
     11 H2           2.1480     0.0060    -0.4120 ha         1 NPO       0.153500
     12 H3           2.0780    -0.0240     2.0380 ha         1 NPO       0.137500
     13 H5          -2.2030    -0.0420     1.9400 ha         1 NPO       0.137500
     14 H6          -2.1580    -0.0290    -0.5120 ha         1 NPO       0.153500
     15 HO           0.2610     0.7720     3.8710 ho         1 NPO       0.476000
@<TRIPOS>BOND
     1     1     2 ar  
     2     1     6 ar  
     3     1     8 1   
     4     2     3 ar  
     5     2    11 1   
     6     3     4 ar  
     7     3    12 1   
     8     4     5 ar  
     9     4     7 1   
    10     5     6 ar  
    11     5    13 1   
    12     6    14 1   
    13     7    15 1   
    14     8     9 1   
    15     8    10 1   
@<TRIPOS>SUBSTRUCTURE
     1 NPO         1 TEMP              0 ****  ****    0 ROOT
