@<TRIPOS>MOLECULE
NPQ
   33    34     1     0     0
SMALL
abcg2


@<TRIPOS>ATOM
      1 C            3.6760    -0.9120    -0.7420 c          1 NPQ       0.717000
      2 N            1.9920     0.8240    -0.2650 ns         1 NPQ      -0.465900
      3 O            4.2340    -0.0270    -1.4160 o          1 NPQ      -0.722000
      4 CA           2.2880    -0.5790    -0.1400 c3         1 NPQ      -0.037300
      5 CB           1.2190    -1.4380    -0.8490 c3         1 NPQ      -0.046100
      6 CG          -0.1660    -1.1370    -0.3640 ca         1 NPQ      -0.034300
      7 CAA          1.0750     2.9900     0.2400 c3         1 NPQ      -0.179100
      8 OAB          0.9540     1.1220     1.7250 o          1 NPQ      -0.648100
      9 CAE         -4.7910     0.7240     0.4940 ca         1 NPQ      -0.131000
     10 CAF         -4.3350     1.3200    -0.7010 ca         1 NPQ      -0.126000
     11 CAH         -3.9990    -0.1710     1.1630 ca         1 NPQ      -0.094000
     12 CAI         -3.1010     1.0060    -1.2020 ca         1 NPQ      -0.098000
     13 CAJ         -1.8710    -1.4280     1.3360 ca         1 NPQ      -0.110000
     14 CAN          1.3350     1.5570     0.6450 c          1 NPQ       0.594100
     15 CAQ         -2.7180    -0.5100     0.6710 ca         1 NPQ      -0.040000
     16 CAR         -2.2600     0.0850    -0.5330 ca         1 NPQ      -0.028000
     17 CD1         -0.6360    -1.7240     0.8360 ca         1 NPQ      -0.074000
     18 CD2         -0.9790    -0.2550    -1.0260 ca         1 NPQ      -0.119000
     19 OXT          4.0880    -2.0640    -0.5150 o          1 NPQ      -0.722000
     20 HN           2.3490     1.2720    -1.0930 hn         1 NPQ       0.324500
     21 HA           2.2930    -0.8370     0.9210 h1         1 NPQ       0.067700
     22 HB           1.2830    -1.2590    -1.9260 hc         1 NPQ       0.056200
     23 HBA          1.4610    -2.4890    -0.6810 hc         1 NPQ       0.056200
     24 HAA          1.3440     3.6610     1.0550 hc         1 NPQ       0.044700
     25 HAAA         1.6130     3.2950    -0.6560 hc         1 NPQ       0.044700
     26 HAAB         0.0070     3.1150     0.0530 hc         1 NPQ       0.044700
     27 HAE         -5.7700     0.9780     0.8790 ha         1 NPQ       0.096000
     28 HAF         -4.9680     2.0280    -1.2200 ha         1 NPQ       0.097000
     29 HAH         -4.3460    -0.6300     2.0820 ha         1 NPQ       0.101000
     30 HAI         -2.7530     1.4640    -2.1210 ha         1 NPQ       0.104000
     31 HAJ         -2.2130    -1.8910     2.2540 ha         1 NPQ       0.101000
     32 HD1          0.0040    -2.4220     1.3630 ha         1 NPQ       0.118000
     33 HD2         -0.6410     0.2040    -1.9490 ha         1 NPQ       0.109000
@<TRIPOS>BOND
     1     1     3 1   
     2     1     4 1   
     3     1    19 1   
     4     2     4 1   
     5     2    14 1   
     6     2    20 1   
     7     4     5 1   
     8     4    21 1   
     9     5     6 1   
    10     5    22 1   
    11     5    23 1   
    12     6    17 ar  
    13     6    18 ar  
    14     7    14 1   
    15     7    24 1   
    16     7    25 1   
    17     7    26 1   
    18     8    14 2   
    19     9    10 ar  
    20     9    11 ar  
    21     9    27 1   
    22    10    12 ar  
    23    10    28 1   
    24    11    15 ar  
    25    11    29 1   
    26    12    16 ar  
    27    12    30 1   
    28    13    15 ar  
    29    13    17 ar  
    30    13    31 1   
    31    15    16 ar  
    32    16    18 ar  
    33    17    32 1   
    34    18    33 1   
@<TRIPOS>SUBSTRUCTURE
     1 NPQ         1 TEMP              0 ****  ****    0 ROOT
