@<TRIPOS>MOLECULE
NPQ
   33    34     1     0     0
SMALL
No Charge or Current Charge


@<TRIPOS>ATOM
      1 C            3.7000    -0.9770    -0.7840 c          1 NPQ       0.717000
      2 N            2.0580     0.8460    -0.2820 ns         1 NPQ      -0.465900
      3 O            4.0070    -0.5260    -1.8810 o          1 NPQ      -0.722000
      4 CA           2.3010    -0.6170    -0.1980 c3         1 NPQ      -0.037300
      5 CB           1.1760    -1.4270    -0.8890 c3         1 NPQ      -0.046100
      6 CG          -0.2150    -1.1180    -0.3460 ca         1 NPQ      -0.034300
      7 CAA          1.2530     3.0770     0.3050 c3         1 NPQ      -0.179100
      8 OAB          1.1440     1.1770     1.7880 o          1 NPQ      -0.648100
      9 CAE         -4.8930     0.6730     0.5060 ca         1 NPQ      -0.131000
     10 CAF         -4.4480     1.2910    -0.6740 ca         1 NPQ      -0.126000
     11 CAH         -4.0620    -0.2390     1.1800 ca         1 NPQ      -0.094000
     12 CAI         -3.1710     0.9990    -1.1840 ca         1 NPQ      -0.098000
     13 CAJ         -1.9450    -1.4450     1.3450 ca         1 NPQ      -0.110000
     14 CAN          1.4660     1.6170     0.6930 c          1 NPQ       0.594100
     15 CAQ         -2.7820    -0.5350     0.6740 ca         1 NPQ      -0.040000
     16 CAR         -2.3350     0.0860    -0.5130 ca         1 NPQ      -0.028000
     17 CD1         -0.6660    -1.7330     0.8370 ca         1 NPQ      -0.074000
     18 CD2         -1.0550    -0.2090    -1.0190 ca         1 NPQ      -0.119000
     19 OXT          4.4690    -1.6250    -0.0870 o          1 NPQ      -0.722000
     20 HN           2.3170     1.3210    -1.1390 hn         1 NPQ       0.324500
     21 HA           2.3230    -0.9020     0.8620 h1         1 NPQ       0.067700
     22 HB           1.2080    -1.2330    -1.9690 hc         1 NPQ       0.056200
     23 HBA          1.3900    -2.4970    -0.7720 hc         1 NPQ       0.056200
     24 HAA          0.7960     3.6670     1.1070 hc         1 NPQ       0.044700
     25 HAAA         2.2080     3.5050    -0.0200 hc         1 NPQ       0.044700
     26 HAAB         0.6570     3.1170    -0.6140 hc         1 NPQ       0.044700
     27 HAE         -5.8820     0.8990     0.8990 ha         1 NPQ       0.096000
     28 HAF         -5.0920     1.9970    -1.1950 ha         1 NPQ       0.097000
     29 HAH         -4.4140    -0.7140     2.0930 ha         1 NPQ       0.101000
     30 HAI         -2.8330     1.4820    -2.0980 ha         1 NPQ       0.104000
     31 HAJ         -2.2800    -1.9270     2.2600 ha         1 NPQ       0.101000
     32 HD1         -0.0240    -2.4330     1.3650 ha         1 NPQ       0.118000
     33 HD2         -0.7100     0.2720    -1.9310 ha         1 NPQ       0.109000
@<TRIPOS>BOND
     1     1     3 1   
     2     1     4 1   
     3     1    19 1   
     4     2     4 1   
     5     2    14 1   
     6     2    20 1   
     7     4     5 1   
     8     4    21 1   
     9     5     6 1   
    10     5    22 1   
    11     5    23 1   
    12     6    17 ar  
    13     6    18 ar  
    14     7    14 1   
    15     7    24 1   
    16     7    25 1   
    17     7    26 1   
    18     8    14 2   
    19     9    10 ar  
    20     9    11 ar  
    21     9    27 1   
    22    10    12 ar  
    23    10    28 1   
    24    11    15 ar  
    25    11    29 1   
    26    12    16 ar  
    27    12    30 1   
    28    13    15 ar  
    29    13    17 ar  
    30    13    31 1   
    31    15    16 ar  
    32    16    18 ar  
    33    17    32 1   
    34    18    33 1   
@<TRIPOS>SUBSTRUCTURE
     1 NPQ         1 TEMP              0 ****  ****    0 ROOT
