@<TRIPOS>MOLECULE
NPR
   31    32     1     0     0
SMALL
bcc


@<TRIPOS>ATOM
      1 N1           5.2370     0.2010    -0.2940 nv         1 NPR      -0.940800
      2 C2           3.8980     0.2730    -0.2250 cc         1 NPR       0.881100
      3 N3           3.2900     1.4160    -0.3030 nd         1 NPR      -0.760100
      4 C4           1.9150     1.4900    -0.2120 c          1 NPR       0.752700
      5 O5           1.3570     2.5800    -0.3150 o          1 NPR      -0.524100
      6 C6           1.1940     0.2580    -0.0020 cc         1 NPR      -0.165600
      7 N7          -0.1920     0.2300    -0.0610 ne         1 NPR      -0.438300
      8 C8          -0.8080    -0.8340     0.2550 c2         1 NPR       0.299300
      9 C9          -0.1010    -2.0610     0.7840 c6         1 NPR       0.155500
     10 N10          1.2500    -2.0850     0.2610 nu         1 NPR      -0.772000
     11 C11          1.8930    -0.9230     0.0980 cd         1 NPR       0.377000
     12 N12          3.2460    -0.9140    -0.0300 na         1 NPR      -0.754000
     13 C13         -2.3010    -0.9490     0.0680 c3         1 NPR       0.091800
     14 O14         -2.5580    -1.6900    -1.1100 oh         1 NPR      -0.597800
     15 C15         -3.0110     0.4090     0.1000 c3         1 NPR       0.123100
     16 O16         -2.8090     1.0210     1.3520 oh         1 NPR      -0.552800
     17 C17         -4.4880     0.2700    -0.2350 c3         1 NPR       0.105400
     18 O18         -5.0740     1.5510    -0.2060 oh         1 NPR      -0.580800
     19 HN11         5.7250     1.0320    -0.5840 hn         1 NPR       0.443300
     20 HN12         5.7000    -0.6720    -0.4790 hn         1 NPR       0.443300
     21 H91         -0.6130    -2.9700     0.4710 h1         1 NPR       0.055200
     22 H92         -0.1130    -2.0430     1.8840 h1         1 NPR       0.055200
     23 H10          1.7730    -2.9430     0.3340 hn         1 NPR       0.434800
     24 H12          3.7680    -1.7730     0.0670 hn         1 NPR       0.439800
     25 H13         -2.7090    -1.5620     0.8820 h1         1 NPR       0.065700
     26 H14         -2.1640    -1.2210    -1.8540 ho         1 NPR       0.415000
     27 H15         -2.5410     1.0710    -0.6340 h1         1 NPR       0.112700
     28 H16         -3.3200     0.5430     2.0140 ho         1 NPR       0.388000
     29 H171        -4.5940    -0.1970    -1.2190 h1         1 NPR       0.023200
     30 H172        -4.9620    -0.4090     0.4920 h1         1 NPR       0.023200
     31 H18         -5.9970     1.4580    -0.4580 ho         1 NPR       0.401000
@<TRIPOS>BOND
     1     1     2 1   
     2     1    19 1   
     3     1    20 1   
     4     2     3 2   
     5     2    12 1   
     6     3     4 1   
     7     4     5 2   
     8     4     6 1   
     9     6     7 1   
    10     6    11 2   
    11     7     8 2   
    12     8     9 1   
    13     8    13 1   
    14     9    10 1   
    15     9    21 1   
    16     9    22 1   
    17    10    11 1   
    18    10    23 1   
    19    11    12 1   
    20    12    24 1   
    21    13    14 1   
    22    13    15 1   
    23    13    25 1   
    24    14    26 1   
    25    15    16 1   
    26    15    17 1   
    27    15    27 1   
    28    16    28 1   
    29    17    18 1   
    30    17    29 1   
    31    17    30 1   
    32    18    31 1   
@<TRIPOS>SUBSTRUCTURE
     1 NPR         1 TEMP              0 ****  ****    0 ROOT
