@<TRIPOS>MOLECULE
NPR
   31    32     1     0     0
SMALL
No Charge or Current Charge


@<TRIPOS>ATOM
      1 N1           5.3170     0.2520     0.0490 nv         1 NPR      -1.051200
      2 C2           4.0390     0.2790    -0.1910 cc         1 NPR       0.881100
      3 N3           3.5330     1.2020    -0.9170 nd         1 NPR      -0.760100
      4 C4           2.1760     1.2410    -1.1890 c          1 NPR       0.752700
      5 O5           1.7470     2.1460    -1.8920 o          1 NPR      -0.524100
      6 C6           1.3310     0.1780    -0.6110 cc         1 NPR      -0.165600
      7 N7          -0.0570     0.1360    -0.8380 ne         1 NPR      -0.438300
      8 C8          -0.7880    -0.7930    -0.2670 c2         1 NPR       0.299300
      9 C9          -0.2030    -1.8950     0.6500 c6         1 NPR       0.155500
     10 N10          1.2820    -1.7960     0.7610 nu         1 NPR      -0.827200
     11 C11          1.9460    -0.7750     0.1670 cd         1 NPR       0.377000
     12 N12          3.2900    -0.6830     0.3580 na         1 NPR      -0.809200
     13 C13         -2.2940    -0.8580    -0.5440 c3         1 NPR       0.115000
     14 O14         -2.5690    -0.5800    -1.9410 oh         1 NPR      -0.720000
     15 C15         -3.0910     0.1220     0.3690 c3         1 NPR       0.146300
     16 O16         -2.8430    -0.1770     1.7530 oh         1 NPR      -0.615000
     17 C17         -4.6260     0.0610     0.1430 c3         1 NPR       0.128600
     18 O18         -5.3010     0.8790     1.1180 oh         1 NPR      -0.703000
     19 HN11         5.8150     0.9230    -0.5210 hn         1 NPR       0.498500
     20 HN12         5.7340    -0.6670     0.0640 hn         1 NPR       0.498500
     21 H91         -0.4840    -2.8790     0.2480 h1         1 NPR       0.055200
     22 H92         -0.6600    -1.8110     1.6470 h1         1 NPR       0.055200
     23 H10          1.7900    -2.3720     1.4320 hn         1 NPR       0.490000
     24 H12          3.7600    -1.3440     0.9490 hn         1 NPR       0.495000
     25 H13         -2.6410    -1.8740    -0.3090 h1         1 NPR       0.065700
     26 H14         -1.8390     0.0080    -2.2550 ho         1 NPR       0.514000
     27 H15         -2.7600     1.1460     0.1420 h1         1 NPR       0.112700
     28 H16         -3.6280     0.1900     2.2220 ho         1 NPR       0.427000
     29 H171        -4.8580     0.4120    -0.8710 h1         1 NPR       0.023200
     30 H172        -4.9650    -0.9810     0.2220 h1         1 NPR       0.023200
     31 H18         -6.2610     0.8670     0.8930 ho         1 NPR       0.500000
@<TRIPOS>BOND
     1     1     2 1   
     2     1    19 1   
     3     1    20 1   
     4     2     3 2   
     5     2    12 1   
     6     3     4 1   
     7     4     5 2   
     8     4     6 1   
     9     6     7 1   
    10     6    11 2   
    11     7     8 2   
    12     8     9 1   
    13     8    13 1   
    14     9    10 1   
    15     9    21 1   
    16     9    22 1   
    17    10    11 1   
    18    10    23 1   
    19    11    12 1   
    20    12    24 1   
    21    13    14 1   
    22    13    15 1   
    23    13    25 1   
    24    14    26 1   
    25    15    16 1   
    26    15    17 1   
    27    15    27 1   
    28    16    28 1   
    29    17    18 1   
    30    17    29 1   
    31    17    30 1   
    32    18    31 1   
@<TRIPOS>SUBSTRUCTURE
     1 NPR         1 TEMP              0 ****  ****    0 ROOT
