@<TRIPOS>MOLECULE
NPS
   30    31     1     0     0
SMALL
abcg2


@<TRIPOS>ATOM
      1 C1          15.3480    -5.2460    27.9810 ca         1 NPS       0.104100
      2 O2          16.1950    -6.2930    27.8960 os         1 NPS      -0.355100
      3 C2          15.3890    -4.1420    27.0990 ca         1 NPS      -0.198000
      4 C14         10.6510    -0.9690    29.6380 c3         1 NPS      -0.173400
      5 C3          14.4950    -3.1130    27.2480 ca         1 NPS      -0.065000
      6 C4          13.5210    -3.1220    28.2670 ca         1 NPS      -0.053000
      7 C5          13.4840    -4.2330    29.1470 ca         1 NPS      -0.017000
      8 C6          14.4080    -5.2830    28.9850 ca         1 NPS      -0.139000
      9 C7          12.5890    -2.0670    28.4290 ca         1 NPS      -0.122000
     10 C8          11.6400    -2.0880    29.4170 ca         1 NPS      -0.004300
     11 C10         10.4650    -0.0630    28.4320 c3         1 NPS      -0.056100
     12 C13         12.4980    -4.2400    30.1670 ca         1 NPS      -0.138000
     13 C11         11.6160    -3.2060    30.2950 ca         1 NPS      -0.065000
     14 C12         17.1870    -6.2910    26.8890 c3         1 NPS       0.158900
     15 C15         11.1070    -0.1890    30.9050 c          1 NPS       0.726000
     16 H14          9.6880    -1.4350    29.8730 hc         1 NPS       0.042700
     17 H101         9.6930     0.6810    28.6330 hc         1 NPS       0.017033
     18 H102        11.3770     0.4770    28.1840 hc         1 NPS       0.017033
     19 H103        10.1530    -0.6290    27.5520 hc         1 NPS       0.017033
     20 H7          12.6420    -1.2360    27.7350 ha         1 NPS       0.112000
     21 H11         10.8760    -3.2310    31.0840 ha         1 NPS       0.133000
     22 H3          14.5370    -2.2730    26.5660 ha         1 NPS       0.104000
     23 H2          16.1150    -4.0880    26.3000 ha         1 NPS       0.099000
     24 H13         12.4510    -5.0820    30.8480 ha         1 NPS       0.098000
     25 H6          14.3780    -6.1310    29.6610 ha         1 NPS       0.114000
     26 H121        16.7540    -6.2870    25.8850 h1         1 NPS       0.029367
     27 H122        17.8670    -5.4410    26.9820 h1         1 NPS       0.029367
     28 H123        17.7570    -7.2090    27.0160 h1         1 NPS       0.029367
     29 OXT         11.8480     0.7940    30.7210 o          1 NPS      -0.721000
     30 O           10.7140    -0.6330    32.0010 o          1 NPS      -0.721000
@<TRIPOS>BOND
     1     1     2 1   
     2     1     3 ar  
     3     1     8 ar  
     4     2    14 1   
     5     3     5 ar  
     6     3    23 1   
     7     4    10 1   
     8     4    11 1   
     9     4    15 1   
    10     4    16 1   
    11     5     6 ar  
    12     5    22 1   
    13     6     7 ar  
    14     6     9 ar  
    15     7     8 ar  
    16     7    12 ar  
    17     8    25 1   
    18     9    10 ar  
    19     9    20 1   
    20    10    13 ar  
    21    11    17 1   
    22    11    18 1   
    23    11    19 1   
    24    12    13 ar  
    25    12    24 1   
    26    13    21 1   
    27    14    26 1   
    28    14    27 1   
    29    14    28 1   
    30    15    29 1   
    31    15    30 1   
@<TRIPOS>SUBSTRUCTURE
     1 NPS         1 TEMP              0 ****  ****    0 ROOT
