@<TRIPOS>MOLECULE
NPS
   30    31     1     0     0
SMALL
No Charge or Current Charge


@<TRIPOS>ATOM
      1 C1          15.3390    -5.2530    27.9430 ca         1 NPS       0.104100
      2 O2          16.1660    -6.3450    27.7780 os         1 NPS      -0.355100
      3 C2          15.5010    -4.0590    27.2060 ca         1 NPS      -0.198000
      4 C14         10.6980    -0.9290    29.7600 c3         1 NPS      -0.173400
      5 C3          14.6270    -2.9780    27.4170 ca         1 NPS      -0.065000
      6 C4          13.5880    -3.0790    28.3600 ca         1 NPS      -0.053000
      7 C5          13.4250    -4.2710    29.0960 ca         1 NPS      -0.017000
      8 C6          14.3010    -5.3520    28.8840 ca         1 NPS      -0.139000
      9 C7          12.7120    -1.9980    28.5710 ca         1 NPS      -0.122000
     10 C8          11.6650    -2.0940    29.5130 ca         1 NPS      -0.004300
     11 C10         10.1820    -0.2680    28.4570 c3         1 NPS      -0.056100
     12 C13         12.3890    -4.3710    30.0410 ca         1 NPS      -0.138000
     13 C11         11.5170    -3.2880    30.2480 ca         1 NPS      -0.065000
     14 C12         17.2580    -6.3460    26.8400 c3         1 NPS       0.158900
     15 C15         11.3140     0.1080    30.7270 c          1 NPS       0.726000
     16 H14          9.8100    -1.3370    30.2590 hc         1 NPS       0.042700
     17 H101         9.4030     0.4690    28.6880 hc         1 NPS       0.017033
     18 H102        10.9840     0.2500    27.9190 hc         1 NPS       0.017033
     19 H103         9.7480    -1.0220    27.7890 hc         1 NPS       0.017033
     20 H7          12.8530    -1.0800    28.0060 ha         1 NPS       0.112000
     21 H11         10.7210    -3.3800    30.9840 ha         1 NPS       0.133000
     22 H3          14.7600    -2.0610    26.8450 ha         1 NPS       0.104000
     23 H2          16.2940    -3.9510    26.4720 ha         1 NPS       0.099000
     24 H13         12.2570    -5.2840    30.6150 ha         1 NPS       0.098000
     25 H6          14.1790    -6.2720    29.4500 ha         1 NPS       0.114000
     26 H121        16.8930    -6.1890    25.8170 h1         1 NPS       0.029367
     27 H122        17.9800    -5.5560    27.0830 h1         1 NPS       0.029367
     28 H123        17.7830    -7.3080    26.8700 h1         1 NPS       0.029367
     29 OXT         12.3120     0.7210    30.3760 o          1 NPS      -0.721000
     30 O           10.7870     0.2550    31.8210 o          1 NPS      -0.721000
@<TRIPOS>BOND
     1     1     2 1   
     2     1     3 ar  
     3     1     8 ar  
     4     2    14 1   
     5     3     5 ar  
     6     3    23 1   
     7     4    10 1   
     8     4    11 1   
     9     4    15 1   
    10     4    16 1   
    11     5     6 ar  
    12     5    22 1   
    13     6     7 ar  
    14     6     9 ar  
    15     7     8 ar  
    16     7    12 ar  
    17     8    25 1   
    18     9    10 ar  
    19     9    20 1   
    20    10    13 ar  
    21    11    17 1   
    22    11    18 1   
    23    11    19 1   
    24    12    13 ar  
    25    12    24 1   
    26    13    21 1   
    27    14    26 1   
    28    14    27 1   
    29    14    28 1   
    30    15    29 1   
    31    15    30 1   
@<TRIPOS>SUBSTRUCTURE
     1 NPS         1 TEMP              0 ****  ****    0 ROOT
