@<TRIPOS>MOLECULE
NPT
   19    18     1     0     0
SMALL
bcc


@<TRIPOS>ATOM
      1 N            0.0290    -0.0330    -2.0740 n8         1 NPT      -0.886800
      2 C1           0.5290    -0.6440    -0.8520 c3         1 NPT       0.156800
      3 C2          -0.0170     0.0150     0.4220 c3         1 NPT      -0.045000
      4 C3           0.5660    -0.7310     1.6210 c3         1 NPT      -0.082100
      5 C4          -1.5430    -0.0860     0.4600 c3         1 NPT      -0.082100
      6 C5           0.4000     1.4840     0.4830 c3         1 NPT      -0.082100
      7 HN1         -0.9330    -0.3080    -2.2270 hn         1 NPT       0.335800
      8 HN2          0.5420    -0.4030    -2.8640 hn         1 NPT       0.335800
      9 H11          1.6190    -0.5440    -0.8500 h1         1 NPT       0.024700
     10 H12          0.3220    -1.7240    -0.7930 h1         1 NPT       0.024700
     11 H31          0.1920    -0.3180     2.5610 hc         1 NPT       0.033367
     12 H32          0.3030    -1.7910     1.5960 hc         1 NPT       0.033367
     13 H33          1.6570    -0.6620     1.6390 hc         1 NPT       0.033367
     14 H41         -1.8780    -1.1230     0.3780 hc         1 NPT       0.033367
     15 H42         -1.9340     0.3120     1.3990 hc         1 NPT       0.033367
     16 H43         -2.0070     0.4830    -0.3490 hc         1 NPT       0.033367
     17 H51          1.4880     1.5850     0.4820 hc         1 NPT       0.033367
     18 H52          0.0130     2.0400    -0.3710 hc         1 NPT       0.033367
     19 H53          0.0260     1.9590     1.3930 hc         1 NPT       0.033367
@<TRIPOS>BOND
     1     1     2 1   
     2     1     7 1   
     3     1     8 1   
     4     2     3 1   
     5     2     9 1   
     6     2    10 1   
     7     3     4 1   
     8     3     5 1   
     9     3     6 1   
    10     4    11 1   
    11     4    12 1   
    12     4    13 1   
    13     5    14 1   
    14     5    15 1   
    15     5    16 1   
    16     6    17 1   
    17     6    18 1   
    18     6    19 1   
@<TRIPOS>SUBSTRUCTURE
     1 NPT         1 TEMP              0 ****  ****    0 ROOT
