@<TRIPOS>MOLECULE
NPT
   19    18     1     0     0
SMALL
No Charge or Current Charge


@<TRIPOS>ATOM
      1 N            0.0960    -0.0370    -2.1300 n8         1 NPT      -0.997200
      2 C1           0.5730    -0.6460    -0.8700 c3         1 NPT       0.156800
      3 C2          -0.0090     0.0160     0.4210 c3         1 NPT      -0.045000
      4 C3           0.5710    -0.7270     1.6530 c3         1 NPT      -0.082100
      5 C4          -1.5580    -0.1040     0.4510 c3         1 NPT      -0.082100
      6 C5           0.3980     1.5130     0.5050 c3         1 NPT      -0.082100
      7 HN1         -0.9220    -0.1500    -2.1840 hn         1 NPT       0.391000
      8 HN2          0.4460    -0.5900    -2.9210 hn         1 NPT       0.391000
      9 H11          1.6700    -0.5800    -0.8530 h1         1 NPT       0.024700
     10 H12          0.3020    -1.7110    -0.8840 h1         1 NPT       0.024700
     11 H31          0.1910    -0.2970     2.5880 hc         1 NPT       0.033367
     12 H32          0.2980    -1.7900     1.6350 hc         1 NPT       0.033367
     13 H33          1.6660    -0.6610     1.6720 hc         1 NPT       0.033367
     14 H41         -1.8720    -1.1520     0.3700 hc         1 NPT       0.033367
     15 H42         -1.9620     0.2960     1.3890 hc         1 NPT       0.033367
     16 H43         -2.0200     0.4540    -0.3730 hc         1 NPT       0.033367
     17 H51          1.4890     1.6240     0.4690 hc         1 NPT       0.033367
     18 H52         -0.0280     2.0910    -0.3230 hc         1 NPT       0.033367
     19 H53          0.0440     1.9620     1.4410 hc         1 NPT       0.033367
@<TRIPOS>BOND
     1     1     2 1   
     2     1     7 1   
     3     1     8 1   
     4     2     3 1   
     5     2     9 1   
     6     2    10 1   
     7     3     4 1   
     8     3     5 1   
     9     3     6 1   
    10     4    11 1   
    11     4    12 1   
    12     4    13 1   
    13     5    14 1   
    14     5    15 1   
    15     5    16 1   
    16     6    17 1   
    17     6    18 1   
    18     6    19 1   
@<TRIPOS>SUBSTRUCTURE
     1 NPT         1 TEMP              0 ****  ****    0 ROOT
