@<TRIPOS>MOLECULE
NPU
   24    24     1     0     0
SMALL
abcg2


@<TRIPOS>ATOM
      1 O1          -1.4600     0.8410     1.5360 oh         1 NPU      -0.656000
      2 C2          -3.3180    -0.7360    -0.2220 c3         1 NPU      -0.095100
      3 N2          -1.9520     1.0880    -1.0890 n8         1 NPU      -1.029200
      4 CA2         -1.9090    -0.2670    -0.5500 c3         1 NPU       0.128500
      5 CB2         -1.0260    -0.2100     0.7170 c3         1 NPU       0.221600
      6 CD3          1.1090    -1.2130    -0.1470 ca         1 NPU      -0.101500
      7 CD4          1.1370     1.1050     0.4530 ca         1 NPU      -0.101500
      8 CE3          2.4400    -1.1390    -0.5280 ca         1 NPU      -0.113000
      9 CE4          2.4720     1.1830     0.0690 ca         1 NPU      -0.113000
     10 CG2          0.4390    -0.0930     0.3440 ca         1 NPU      -0.114300
     11 CZ2          3.1280     0.0640    -0.4230 ca         1 NPU      -0.110000
     12 HO1         -1.7810     1.5140     0.9100 ho         1 NPU       0.470000
     13 H2          -3.9370    -0.7570    -1.1210 hc         1 NPU       0.043033
     14 H2A         -3.3010    -1.7440     0.1920 hc         1 NPU       0.043033
     15 H2B         -3.8000    -0.0790     0.5030 hc         1 NPU       0.043033
     16 HN2         -1.0960     1.3010    -1.5860 hn         1 NPU       0.408500
     17 HN2A        -2.7040     1.1820    -1.7600 hn         1 NPU       0.408500
     18 HA2         -1.4610    -0.9850    -1.2470 h1         1 NPU       0.032700
     19 HB2         -1.1580    -1.1480     1.2700 h1         1 NPU       0.069700
     20 HD3          0.5840    -2.1590    -0.2260 ha         1 NPU       0.115000
     21 HD4          0.6490     1.9850     0.8490 ha         1 NPU       0.115000
     22 HE3          2.9420    -2.0230    -0.9020 ha         1 NPU       0.111500
     23 HE4          3.0000     2.1240     0.1590 ha         1 NPU       0.111500
     24 HZ2          4.1680     0.1260    -0.7170 ha         1 NPU       0.112000
@<TRIPOS>BOND
     1     1     5 1   
     2     1    12 1   
     3     2     4 1   
     4     2    13 1   
     5     2    14 1   
     6     2    15 1   
     7     3     4 1   
     8     3    16 1   
     9     3    17 1   
    10     4     5 1   
    11     4    18 1   
    12     5    10 1   
    13     5    19 1   
    14     6     8 ar  
    15     6    10 ar  
    16     6    20 1   
    17     7     9 ar  
    18     7    10 ar  
    19     7    21 1   
    20     8    11 ar  
    21     8    22 1   
    22     9    11 ar  
    23     9    23 1   
    24    11    24 1   
@<TRIPOS>SUBSTRUCTURE
     1 NPU         1 TEMP              0 ****  ****    0 ROOT
