@<TRIPOS>MOLECULE
NPU
   24    24     1     0     0
SMALL
No Charge or Current Charge


@<TRIPOS>ATOM
      1 O1          -1.3290     0.7100     1.6440 oh         1 NPU      -0.656000
      2 C2          -3.2260    -0.8130    -0.5270 c3         1 NPU      -0.095100
      3 N2          -2.3290     1.4840    -0.5770 n8         1 NPU      -1.029200
      4 CA2         -1.9430     0.0410    -0.5500 c3         1 NPU       0.128500
      5 CB2         -1.0040    -0.2700     0.6630 c3         1 NPU       0.221600
      6 CD3          1.2700    -1.3670     0.3370 ca         1 NPU      -0.101500
      7 CD4          1.0910     1.0250    -0.0670 ca         1 NPU      -0.101500
      8 CE3          2.6350    -1.3200     0.0030 ca         1 NPU      -0.113000
      9 CE4          2.4560     1.0700    -0.4010 ca         1 NPU      -0.113000
     10 CG2          0.4840    -0.1950     0.3050 ca         1 NPU      -0.114300
     11 CZ2          3.2290    -0.1020    -0.3660 ca         1 NPU      -0.110000
     12 HO1         -1.8450     1.3350     1.0610 ho         1 NPU       0.470000
     13 H2          -3.8590    -0.5920    -1.3950 hc         1 NPU       0.043033
     14 H2A         -2.9760    -1.8810    -0.5580 hc         1 NPU       0.043033
     15 H2B         -3.8090    -0.6250     0.3840 hc         1 NPU       0.043033
     16 HN2         -1.6280     2.0040    -1.1230 hn         1 NPU       0.408500
     17 HN2A        -3.1760     1.5890    -1.1520 hn         1 NPU       0.408500
     18 HA2         -1.4150    -0.1930    -1.4860 h1         1 NPU       0.032700
     19 HB2         -1.2230    -1.2800     1.0410 h1         1 NPU       0.069700
     20 HD3          0.8240    -2.3180     0.6200 ha         1 NPU       0.115000
     21 HD4          0.5070     1.9420    -0.0940 ha         1 NPU       0.115000
     22 HE3          3.2320    -2.2290     0.0310 ha         1 NPU       0.111500
     23 HE4          2.9140     2.0150    -0.6850 ha         1 NPU       0.111500
     24 HZ2          4.2850    -0.0670    -0.6240 ha         1 NPU       0.112000
@<TRIPOS>BOND
     1     1     5 1   
     2     1    12 1   
     3     2     4 1   
     4     2    13 1   
     5     2    14 1   
     6     2    15 1   
     7     3     4 1   
     8     3    16 1   
     9     3    17 1   
    10     4     5 1   
    11     4    18 1   
    12     5    10 1   
    13     5    19 1   
    14     6     8 ar  
    15     6    10 ar  
    16     6    20 1   
    17     7     9 ar  
    18     7    10 ar  
    19     7    21 1   
    20     8    11 ar  
    21     8    22 1   
    22     9    11 ar  
    23     9    23 1   
    24    11    24 1   
@<TRIPOS>SUBSTRUCTURE
     1 NPU         1 TEMP              0 ****  ****    0 ROOT
