@<TRIPOS>MOLECULE
NPV
   40    43     1     0     0
SMALL
abcg2


@<TRIPOS>ATOM
      1 C4           4.6780    -0.8730     0.1290 ca         1 NPV      -0.099600
      2 C5           3.4710    -1.5410     0.3110 ca         1 NPV      -0.102500
      3 C6           2.2630    -0.8640     0.2820 ca         1 NPV      -0.100000
      4 C7           2.2190     0.5160     0.0670 cp         1 NPV      -0.211500
      5 C9           4.6350     0.5030    -0.0850 ca         1 NPV      -0.102500
      6 C10          0.9200     1.2220     0.0280 cp         1 NPV       0.465500
      7 C15         -3.0290     4.0910    -0.4020 ca         1 NPV       0.330900
      8 C11          0.8070     2.5790    -0.1620 ca         1 NPV      -0.159000
      9 C12         -0.4710     3.1590    -0.2280 ca         1 NPV      -0.044000
     10 C13         -0.6820     4.5390    -0.4600 ca         1 NPV      -0.067000
     11 C3           6.0050    -1.6200     0.1580 c          1 NPV       0.709600
     12 O1           5.9480    -2.8490     0.3530 o          1 NPV      -0.713500
     13 O2           7.0320    -0.9370    -0.0180 o          1 NPV      -0.713500
     14 C8           3.4310     1.1860    -0.1160 ca         1 NPV      -0.100000
     15 N19         -0.1760     0.4510     0.1940 nb         1 NPV      -0.670000
     16 C14         -1.9600     5.0050    -0.5430 ca         1 NPV      -0.159000
     17 N16         -2.8680     2.8150    -0.1790 nb         1 NPV      -0.652000
     18 C17         -1.6100     2.3390    -0.0770 ca         1 NPV       0.201000
     19 C18         -1.3810     0.9530     0.1650 cp         1 NPV       0.438500
     20 C20         -2.4870    -0.0120     0.3670 cp         1 NPV      -0.135500
     21 C25         -2.3610    -1.2810    -0.1900 ca         1 NPV      -0.010000
     22 C21         -3.6120     0.2800     1.1370 ca         1 NPV      -0.027000
     23 C22         -4.5970    -0.6770     1.3410 ca         1 NPV      -0.140000
     24 C23         -4.4870    -1.9350     0.7750 ca         1 NPV      -0.047000
     25 C24         -3.3610    -2.2150     0.0140 ca         1 NPV      -0.190200
     26 N26         -3.2210    -3.5350    -0.5870 no         1 NPV       0.696200
     27 O27         -2.2190    -3.7690    -1.2180 o          1 NPV      -0.404000
     28 O28         -4.1160    -4.3300    -0.4230 o          1 NPV      -0.404000
     29 H5           3.4750    -2.6110     0.4760 ha         1 NPV       0.133000
     30 H6           1.3400    -1.4080     0.4280 ha         1 NPV       0.097000
     31 H9           5.5580     1.0480    -0.2300 ha         1 NPV       0.133000
     32 H15         -4.0500     4.4480    -0.4840 h4         1 NPV       0.012100
     33 H11          1.6730     3.2170    -0.2720 ha         1 NPV       0.132000
     34 H13          0.1680     5.2000    -0.5730 ha         1 NPV       0.122000
     35 H8           3.4540     2.2550    -0.2880 ha         1 NPV       0.097000
     36 H14         -2.1700     6.0500    -0.7210 ha         1 NPV       0.118000
     37 H25         -1.4880    -1.5210    -0.7790 ha         1 NPV       0.171000
     38 H21         -3.7170     1.2490     1.6010 ha         1 NPV       0.133000
     39 H22         -5.4570    -0.4400     1.9510 ha         1 NPV       0.120000
     40 H23         -5.2600    -2.6730     0.9340 ha         1 NPV       0.143000
@<TRIPOS>BOND
     1     1     2 ar  
     2     1     5 ar  
     3     1    11 1   
     4     2     3 ar  
     5     2    29 1   
     6     3     4 ar  
     7     3    30 1   
     8     4     6 1   
     9     4    14 ar  
    10     5    14 ar  
    11     5    31 1   
    12     6     8 ar  
    13     6    15 ar  
    14     7    16 ar  
    15     7    17 ar  
    16     7    32 1   
    17     8     9 ar  
    18     8    33 1   
    19     9    10 ar  
    20     9    18 ar  
    21    10    16 ar  
    22    10    34 1   
    23    11    12 1   
    24    11    13 1   
    25    14    35 1   
    26    15    19 ar  
    27    16    36 1   
    28    17    18 ar  
    29    18    19 ar  
    30    19    20 1   
    31    20    21 ar  
    32    20    22 ar  
    33    21    25 ar  
    34    21    37 1   
    35    22    23 ar  
    36    22    38 1   
    37    23    24 ar  
    38    23    39 1   
    39    24    25 ar  
    40    24    40 1   
    41    25    26 1   
    42    26    27 1   
    43    26    28 1   
@<TRIPOS>SUBSTRUCTURE
     1 NPV         1 TEMP              0 ****  ****    0 ROOT
