@<TRIPOS>MOLECULE
NPV
   40    43     1     0     0
SMALL
No Charge or Current Charge


@<TRIPOS>ATOM
      1 C4           4.8040    -0.8280     0.1700 ca         1 NPV      -0.099600
      2 C5           3.6640    -1.4150     0.7620 ca         1 NPV      -0.102500
      3 C6           2.4150    -0.7720     0.7160 ca         1 NPV      -0.100000
      4 C7           2.2500     0.4880     0.0790 cp         1 NPV      -0.211500
      5 C9           4.6520     0.4210    -0.4720 ca         1 NPV      -0.102500
      6 C10          0.9100     1.1760     0.0320 cp         1 NPV       0.465500
      7 C15         -3.0180     4.2390    -0.2920 ca         1 NPV       0.330900
      8 C11          0.7790     2.5740    -0.1330 ca         1 NPV      -0.159000
      9 C12         -0.4940     3.1640    -0.1800 ca         1 NPV      -0.044000
     10 C13         -0.6250     4.5520    -0.3640 ca         1 NPV      -0.067000
     11 C3           6.1580    -1.5240     0.2200 c          1 NPV       0.709600
     12 O1           6.2420    -2.6060     0.7860 o          1 NPV      -0.713500
     13 O2           7.1180    -0.9780    -0.3080 o          1 NPV      -0.713500
     14 C8           3.4030     1.0640    -0.5170 ca         1 NPV      -0.100000
     15 N19         -0.1760     0.3870     0.1640 nb         1 NPV      -0.670000
     16 C14         -1.9160     5.0950    -0.4200 ca         1 NPV      -0.159000
     17 N16         -2.8930     2.9040    -0.1100 nb         1 NPV      -0.652000
     18 C17         -1.6460     2.3490    -0.0430 ca         1 NPV       0.201000
     19 C18         -1.4180     0.9380     0.1500 cp         1 NPV       0.438500
     20 C20         -2.5300    -0.0610     0.3290 cp         1 NPV      -0.135500
     21 C25         -2.4700    -1.3310    -0.3060 ca         1 NPV      -0.010000
     22 C21         -3.6500     0.2120     1.1550 ca         1 NPV      -0.027000
     23 C22         -4.6740    -0.7340     1.3240 ca         1 NPV      -0.140000
     24 C23         -4.6050    -1.9780     0.6790 ca         1 NPV      -0.047000
     25 C24         -3.4990    -2.2900    -0.1430 ca         1 NPV      -0.190200
     26 N26         -3.4130    -3.6190    -0.8310 no         1 NPV       0.696200
     27 O27         -2.4300    -3.8450    -1.5490 o          1 NPV      -0.404000
     28 O28         -4.3320    -4.4300    -0.6540 o          1 NPV      -0.404000
     29 H5           3.7410    -2.3770     1.2650 ha         1 NPV       0.133000
     30 H6           1.5660    -1.2600     1.1910 ha         1 NPV       0.097000
     31 H9           5.5070     0.9000    -0.9440 ha         1 NPV       0.133000
     32 H15         -4.0340     4.6300    -0.3350 h4         1 NPV       0.012100
     33 H11          1.6640     3.1960    -0.2160 ha         1 NPV       0.132000
     34 H13          0.2480     5.1920    -0.4670 ha         1 NPV       0.122000
     35 H8           3.3370     2.0150    -1.0390 ha         1 NPV       0.097000
     36 H14         -2.0670     6.1620    -0.5630 ha         1 NPV       0.118000
     37 H25         -1.6120    -1.5590    -0.9370 ha         1 NPV       0.171000
     38 H21         -3.7210     1.1590     1.6850 ha         1 NPV       0.133000
     39 H22         -5.5230    -0.5020     1.9630 ha         1 NPV       0.120000
     40 H23         -5.4130    -2.6940     0.8270 ha         1 NPV       0.143000
@<TRIPOS>BOND
     1     1     2 ar  
     2     1     5 ar  
     3     1    11 1   
     4     2     3 ar  
     5     2    29 1   
     6     3     4 ar  
     7     3    30 1   
     8     4     6 1   
     9     4    14 ar  
    10     5    14 ar  
    11     5    31 1   
    12     6     8 ar  
    13     6    15 ar  
    14     7    16 ar  
    15     7    17 ar  
    16     7    32 1   
    17     8     9 ar  
    18     8    33 1   
    19     9    10 ar  
    20     9    18 ar  
    21    10    16 ar  
    22    10    34 1   
    23    11    12 1   
    24    11    13 1   
    25    14    35 1   
    26    15    19 ar  
    27    16    36 1   
    28    17    18 ar  
    29    18    19 ar  
    30    19    20 1   
    31    20    21 ar  
    32    20    22 ar  
    33    21    25 ar  
    34    21    37 1   
    35    22    23 ar  
    36    22    38 1   
    37    23    24 ar  
    38    23    39 1   
    39    24    25 ar  
    40    24    40 1   
    41    25    26 1   
    42    26    27 1   
    43    26    28 1   
@<TRIPOS>SUBSTRUCTURE
     1 NPV         1 TEMP              0 ****  ****    0 ROOT
