@<TRIPOS>MOLECULE
NPX
   30    31     1     0     0
SMALL
bcc


@<TRIPOS>ATOM
      1 C1          -3.4420    -0.1700    -0.0610 ca         1 NPX       0.104100
      2 O2          -4.7040    -0.6460    -0.1050 os         1 NPX      -0.331900
      3 C2          -3.1220     1.2010    -0.1860 ca         1 NPX      -0.215000
      4 C3          -1.8150     1.6090    -0.1290 ca         1 NPX      -0.084000
      5 C4          -0.7610     0.6900     0.0530 ca         1 NPX      -0.052000
      6 C5          -1.0880    -0.6840     0.1780 ca         1 NPX      -0.014000
      7 C6          -2.4340    -1.0910     0.1170 ca         1 NPX      -0.156000
      8 C7           0.5960     1.0940     0.1230 ca         1 NPX      -0.148000
      9 C8           1.6100     0.1930     0.3030 ca         1 NPX       0.018700
     10 C9           3.0430     0.6240     0.4370 c3         1 NPX      -0.175400
     11 C10          3.5400     0.4210     1.8680 c3         1 NPX      -0.054100
     12 C13         -0.0260    -1.6070     0.3670 ca         1 NPX      -0.158000
     13 C11          1.2690    -1.1810     0.4240 ca         1 NPX      -0.066000
     14 C12         -5.7760     0.2610    -0.2550 c3         1 NPX       0.135700
     15 C15          3.9660    -0.0420    -0.6170 c          1 NPX       0.932600
     16 H2          -3.8960     1.9440    -0.3240 ha         1 NPX       0.116000
     17 H6          -2.6780    -2.1430     0.2150 ha         1 NPX       0.132000
     18 H121        -6.6850    -0.3350    -0.2550 h1         1 NPX       0.029033
     19 H122        -5.8300     0.9760     0.5710 h1         1 NPX       0.029033
     20 H123        -5.7230     0.8120    -1.1970 h1         1 NPX       0.029033
     21 H3          -1.5850     2.6630    -0.2260 ha         1 NPX       0.120000
     22 H7           0.8210     2.1510     0.0300 ha         1 NPX       0.120000
     23 H13         -0.2560    -2.6620     0.4620 ha         1 NPX       0.116000
     24 H9           3.0840     1.7020     0.2290 hc         1 NPX       0.036700
     25 H11          2.0570    -1.9110     0.5670 ha         1 NPX       0.142000
     26 H101         4.5590     0.7870     1.9800 hc         1 NPX       0.017033
     27 H102         2.9100     0.9560     2.5800 hc         1 NPX       0.017033
     28 H103         3.5350    -0.6340     2.1510 hc         1 NPX       0.017033
     29 OXT          5.1840    -0.0740    -0.3530 o          1 NPX      -0.829300
     30 O            3.4230    -0.4560    -1.6600 o          1 NPX      -0.829300
@<TRIPOS>BOND
     1     1     2 1   
     2     1     3 ar  
     3     1     7 ar  
     4     2    14 1   
     5     3     4 ar  
     6     3    16 1   
     7     4     5 ar  
     8     4    21 1   
     9     5     6 ar  
    10     5     8 ar  
    11     6     7 ar  
    12     6    12 ar  
    13     7    17 1   
    14     8     9 ar  
    15     8    22 1   
    16     9    10 1   
    17     9    13 ar  
    18    10    11 1   
    19    10    15 1   
    20    10    24 1   
    21    11    26 1   
    22    11    27 1   
    23    11    28 1   
    24    12    13 ar  
    25    12    23 1   
    26    13    25 1   
    27    14    18 1   
    28    14    19 1   
    29    14    20 1   
    30    15    29 1   
    31    15    30 1   
@<TRIPOS>SUBSTRUCTURE
     1 NPX         1 TEMP              0 ****  ****    0 ROOT
