@<TRIPOS>MOLECULE
NPX
   30    31     1     0     0
SMALL
No Charge or Current Charge


@<TRIPOS>ATOM
      1 C1          -3.4580    -0.1120    -0.0900 ca         1 NPX       0.104100
      2 O2          -4.7610    -0.5590    -0.1760 os         1 NPX      -0.355100
      3 C2          -3.1100     1.2470    -0.2530 ca         1 NPX      -0.197000
      4 C3          -1.7650     1.6450    -0.1540 ca         1 NPX      -0.066000
      5 C4          -0.7610     0.6940     0.1070 ca         1 NPX      -0.052000
      6 C5          -1.1080    -0.6630     0.2700 ca         1 NPX      -0.014000
      7 C6          -2.4550    -1.0590     0.1710 ca         1 NPX      -0.138000
      8 C7           0.5860     1.0910     0.2060 ca         1 NPX      -0.130000
      9 C8           1.5970     0.1440     0.4710 ca         1 NPX       0.018700
     10 C9           3.0550     0.6020     0.5770 c3         1 NPX      -0.175400
     11 C10          3.7720     0.0620     1.8400 c3         1 NPX      -0.054100
     12 C13         -0.1050    -1.6130     0.5290 ca         1 NPX      -0.140000
     13 C11          1.2390    -1.2120     0.6280 ca         1 NPX      -0.048000
     14 C12         -5.8610     0.3300    -0.4390 c3         1 NPX       0.158900
     15 C15          3.8350     0.2670    -0.7150 c          1 NPX       0.722000
     16 H2          -3.8620     2.0040    -0.4550 ha         1 NPX       0.098000
     17 H6          -2.7260    -2.1040     0.2960 ha         1 NPX       0.114000
     18 H121        -6.8040    -0.2300    -0.4660 h1         1 NPX       0.029033
     19 H122        -5.9410     1.0940     0.3450 h1         1 NPX       0.029033
     20 H123        -5.7350     0.8300    -1.4080 h1         1 NPX       0.029033
     21 H3          -1.5040     2.6940    -0.2810 ha         1 NPX       0.102000
     22 H7           0.8480     2.1390     0.0780 ha         1 NPX       0.102000
     23 H13         -0.3620    -2.6620     0.6530 ha         1 NPX       0.098000
     24 H9           3.0580     1.6950     0.6750 hc         1 NPX       0.036700
     25 H11          2.0020    -1.9620     0.8190 ha         1 NPX       0.124000
     26 H101         4.7730     0.5010     1.9260 hc         1 NPX       0.017033
     27 H102         3.2080     0.3230     2.7430 hc         1 NPX       0.017033
     28 H103         3.8850    -1.0280     1.8070 hc         1 NPX       0.017033
     29 OXT          4.2520     1.1960    -1.3910 o          1 NPX      -0.724000
     30 O            3.9850    -0.9070    -1.0240 o          1 NPX      -0.724000
@<TRIPOS>BOND
     1     1     2 1   
     2     1     3 ar  
     3     1     7 ar  
     4     2    14 1   
     5     3     4 ar  
     6     3    16 1   
     7     4     5 ar  
     8     4    21 1   
     9     5     6 ar  
    10     5     8 ar  
    11     6     7 ar  
    12     6    12 ar  
    13     7    17 1   
    14     8     9 ar  
    15     8    22 1   
    16     9    10 1   
    17     9    13 ar  
    18    10    11 1   
    19    10    15 1   
    20    10    24 1   
    21    11    26 1   
    22    11    27 1   
    23    11    28 1   
    24    12    13 ar  
    25    12    23 1   
    26    13    25 1   
    27    14    18 1   
    28    14    19 1   
    29    14    20 1   
    30    15    29 1   
    31    15    30 1   
@<TRIPOS>SUBSTRUCTURE
     1 NPX         1 TEMP              0 ****  ****    0 ROOT
