@<TRIPOS>MOLECULE
NPY
   18    19     1     0     0
SMALL
abcg2


@<TRIPOS>ATOM
      1 C1          -1.2330     1.4080    -0.0220 ca         1 NPY      -0.098000
      2 C2          -2.4180     0.7250    -0.0270 ca         1 NPY      -0.108000
      3 C3          -2.4270    -0.6860    -0.0280 ca         1 NPY      -0.108000
      4 C4          -1.2500    -1.3840    -0.0230 ca         1 NPY      -0.098000
      5 C4A         -0.0080    -0.7050    -0.0180 ca         1 NPY      -0.036000
      6 C5           1.2260    -1.3990    -0.0120 ca         1 NPY      -0.098000
      7 C6           2.4110    -0.7160    -0.0060 ca         1 NPY      -0.108000
      8 C7           2.4200     0.6950    -0.0050 ca         1 NPY      -0.108000
      9 C8           1.2420     1.3930    -0.0100 ca         1 NPY      -0.098000
     10 C8A          0.0010     0.7140    -0.0160 ca         1 NPY      -0.036000
     11 H11         -1.2250     2.4910    -0.0210 ha         1 NPY       0.112000
     12 H2          -3.3560     1.2660    -0.0310 ha         1 NPY       0.112000
     13 H3          -3.3710    -1.2160    -0.0320 ha         1 NPY       0.112000
     14 H4          -1.2560    -2.4670    -0.0250 ha         1 NPY       0.112000
     15 H5           1.2180    -2.4820    -0.0130 ha         1 NPY       0.112000
     16 H6           3.3490    -1.2570    -0.0020 ha         1 NPY       0.112000
     17 H7           3.3640     1.2240     0.0000 ha         1 NPY       0.112000
     18 H8           1.2490     2.4760    -0.0090 ha         1 NPY       0.112000
@<TRIPOS>BOND
     1     1     2 ar  
     2     1    10 ar  
     3     1    11 1   
     4     2     3 ar  
     5     2    12 1   
     6     3     4 ar  
     7     3    13 1   
     8     4     5 ar  
     9     4    14 1   
    10     5     6 ar  
    11     5    10 ar  
    12     6     7 ar  
    13     6    15 1   
    14     7     8 ar  
    15     7    16 1   
    16     8     9 ar  
    17     8    17 1   
    18     9    10 ar  
    19     9    18 1   
@<TRIPOS>SUBSTRUCTURE
     1 NPY         1 TEMP              0 ****  ****    0 ROOT
