@<TRIPOS>MOLECULE
NPY
   18    19     1     0     0
SMALL
No Charge or Current Charge


@<TRIPOS>ATOM
      1 C1          -1.2160     1.4190    -0.0210 ca         1 NPY      -0.098000
      2 C2          -2.4370     0.7220    -0.0270 ca         1 NPY      -0.108000
      3 C3          -2.4460    -0.6830    -0.0280 ca         1 NPY      -0.108000
      4 C4          -1.2340    -1.3950    -0.0230 ca         1 NPY      -0.098000
      5 C4A         -0.0080    -0.7020    -0.0170 ca         1 NPY      -0.036000
      6 C5           1.2090    -1.4100    -0.0120 ca         1 NPY      -0.098000
      7 C6           2.4300    -0.7130    -0.0060 ca         1 NPY      -0.108000
      8 C7           2.4390     0.6920    -0.0050 ca         1 NPY      -0.108000
      9 C8           1.2260     1.4040    -0.0100 ca         1 NPY      -0.098000
     10 C8A          0.0010     0.7110    -0.0160 ca         1 NPY      -0.036000
     11 H11         -1.2180     2.5070    -0.0200 ha         1 NPY       0.112000
     12 H2          -3.3760     1.2720    -0.0310 ha         1 NPY       0.112000
     13 H3          -3.3910    -1.2210    -0.0330 ha         1 NPY       0.112000
     14 H4          -1.2490    -2.4830    -0.0240 ha         1 NPY       0.112000
     15 H5           1.2110    -2.4980    -0.0130 ha         1 NPY       0.112000
     16 H6           3.3690    -1.2630    -0.0020 ha         1 NPY       0.112000
     17 H7           3.3840     1.2300    -0.0000 ha         1 NPY       0.112000
     18 H8           1.2420     2.4920    -0.0090 ha         1 NPY       0.112000
@<TRIPOS>BOND
     1     1     2 ar  
     2     1    10 ar  
     3     1    11 1   
     4     2     3 ar  
     5     2    12 1   
     6     3     4 ar  
     7     3    13 1   
     8     4     5 ar  
     9     4    14 1   
    10     5     6 ar  
    11     5    10 ar  
    12     6     7 ar  
    13     6    15 1   
    14     7     8 ar  
    15     7    16 1   
    16     8     9 ar  
    17     8    17 1   
    18     9    10 ar  
    19     9    18 1   
@<TRIPOS>SUBSTRUCTURE
     1 NPY         1 TEMP              0 ****  ****    0 ROOT
