@<TRIPOS>MOLECULE
NPZ
   34    37     1     0     0
SMALL
bcc


@<TRIPOS>ATOM
      1 C6          -1.8890     1.8130    -0.3690 ca         1 NPZ       0.784200
      2 NAF         -0.7970     2.5100    -0.6930 nv         1 NPZ      -0.955500
      3 C5          -1.8770     0.4280    -0.0750 ca         1 NPZ      -0.510500
      4 N1          -3.0510     2.4670    -0.3220 nb         1 NPZ      -0.839000
      5 C2          -4.1650     1.7890    -0.0500 ca         1 NPZ       0.723900
      6 N3          -4.3040     0.4990     0.1730 nb         1 NPZ      -0.759000
      7 C4          -3.1340    -0.1450     0.1430 ca         1 NPZ       0.483800
      8 NAT         -2.9350    -1.4650     0.3060 na         1 NPZ       0.014200
      9 CAU         -3.9200    -2.4850     0.5600 c3         1 NPZ       0.052600
     10 NAP         -1.6360    -1.7780     0.2210 nc         1 NPZ      -0.519100
     11 CAO         -0.9710    -0.6660     0.0010 cd         1 NPZ       0.434500
     12 CAG          0.4900    -0.6950    -0.1110 ca         1 NPZ      -0.094900
     13 CAH          1.2650     0.2780     0.4730 ca         1 NPZ      -0.116000
     14 CAA          1.1210    -1.7660    -0.7930 ca         1 NPZ      -0.099000
     15 CAB          2.4810    -1.8250    -0.8890 ca         1 NPZ      -0.119000
     16 CAC          3.2970    -0.8240    -0.3110 ca         1 NPZ      -0.031000
     17 CAI          2.6750     0.2440     0.3840 ca         1 NPZ      -0.042000
     18 CAD          4.7080    -0.8580    -0.3990 ca         1 NPZ      -0.117000
     19 CAE          5.4650     0.1250     0.1780 ca         1 NPZ      -0.122000
     20 CAK          4.8460     1.1870     0.8720 ca         1 NPZ      -0.124000
     21 CAJ          3.4830     1.2450     0.9730 ca         1 NPZ      -0.117000
     22 H1AF         0.0690     2.0530    -0.9200 hn         1 NPZ       0.446300
     23 H2AF        -0.9030     3.4670    -0.9870 hn         1 NPZ       0.446300
     24 H2          -5.0740     2.3820    -0.0220 h5         1 NPZ       0.046100
     25 H1AU        -3.9030    -3.2320    -0.2320 h1         1 NPZ       0.060700
     26 H2AU        -3.7290    -2.9690     1.5160 h1         1 NPZ       0.060700
     27 H3AU        -4.9000    -2.0200     0.5880 h1         1 NPZ       0.060700
     28 HAH          0.8040     1.0780     1.0420 ha         1 NPZ       0.140000
     29 HAA          0.5120    -2.5360    -1.2480 ha         1 NPZ       0.146000
     30 HAB          2.9520    -2.6470    -1.4160 ha         1 NPZ       0.135000
     31 HAD          5.1820    -1.6750    -0.9300 ha         1 NPZ       0.133000
     32 HAE          6.5440     0.0920     0.1050 ha         1 NPZ       0.132000
     33 HAK          5.4560     1.9580     1.3240 ha         1 NPZ       0.132000
     34 HAJ          3.0060     2.0610     1.5020 ha         1 NPZ       0.132000
@<TRIPOS>BOND
     1     1     2 1   
     2     1     3 ar  
     3     1     4 ar  
     4     2    22 1   
     5     2    23 1   
     6     3     7 ar  
     7     3    11 1   
     8     4     5 ar  
     9     5     6 ar  
    10     5    24 1   
    11     6     7 ar  
    12     7     8 1   
    13     8     9 1   
    14     8    10 1   
    15     9    25 1   
    16     9    26 1   
    17     9    27 1   
    18    10    11 2   
    19    11    12 1   
    20    12    13 ar  
    21    12    14 ar  
    22    13    17 ar  
    23    13    28 1   
    24    14    15 ar  
    25    14    29 1   
    26    15    16 ar  
    27    15    30 1   
    28    16    17 ar  
    29    16    18 ar  
    30    17    21 ar  
    31    18    19 ar  
    32    18    31 1   
    33    19    20 ar  
    34    19    32 1   
    35    20    21 ar  
    36    20    33 1   
    37    21    34 1   
@<TRIPOS>SUBSTRUCTURE
     1 NPZ         1 TEMP              0 ****  ****    0 ROOT
