@<TRIPOS>MOLECULE
NPZ
   34    37     1     0     0
SMALL
No Charge or Current Charge


@<TRIPOS>ATOM
      1 C6          -1.7870     1.6670    -0.4630 ca         1 NPZ       0.455900
      2 NAF         -0.6280     2.2300    -0.8610 nv         1 NPZ      -1.065900
      3 C5          -1.9130     0.3370    -0.0750 ca         1 NPZ      -0.379900
      4 N1          -2.8600     2.4680    -0.5080 nb         1 NPZ      -0.313000
      5 C2          -4.0460     1.9000    -0.1780 ca         1 NPZ       0.197900
      6 N3          -4.2540     0.6050     0.1620 nb         1 NPZ      -0.233000
      7 C4          -3.1520    -0.1690     0.1990 ca         1 NPZ       0.155500
      8 NAT         -2.9740    -1.5240     0.4280 na         1 NPZ      -0.015100
      9 CAU         -4.0730    -2.4560     0.7250 c3         1 NPZ       0.081900
     10 NAP         -1.6420    -1.9180     0.2960 nc         1 NPZ      -0.519100
     11 CAO         -0.9950    -0.7760     0.0240 cd         1 NPZ       0.434500
     12 CAG          0.4710    -0.7270    -0.1310 ca         1 NPZ      -0.094900
     13 CAH          1.2350     0.2390     0.5570 ca         1 NPZ      -0.098000
     14 CAA          1.1370    -1.7170    -0.8830 ca         1 NPZ      -0.081000
     15 CAB          2.5370    -1.7060    -0.9980 ca         1 NPZ      -0.101000
     16 CAC          3.2920    -0.7200    -0.3400 ca         1 NPZ      -0.031000
     17 CAI          2.6380     0.2540     0.4460 ca         1 NPZ      -0.042000
     18 CAD          4.6960    -0.7050    -0.4500 ca         1 NPZ      -0.099000
     19 CAE          5.4450     0.2770     0.2210 ca         1 NPZ      -0.104000
     20 CAK          4.7940     1.2440     1.0060 ca         1 NPZ      -0.106000
     21 CAJ          3.3930     1.2330     1.1200 ca         1 NPZ      -0.099000
     22 H1AF         0.1530     1.6210    -1.0870 hn         1 NPZ       0.501500
     23 H2AF        -0.6690     3.1220    -1.3450 hn         1 NPZ       0.501500
     24 H2          -4.9230     2.5430    -0.2110 h5         1 NPZ       0.046100
     25 H1AU        -4.7580    -2.5000    -0.1300 h1         1 NPZ       0.060700
     26 H2AU        -3.6720    -3.4580     0.9190 h1         1 NPZ       0.060700
     27 H3AU        -4.6200    -2.1080     1.6100 h1         1 NPZ       0.060700
     28 HAH          0.7370     0.9720     1.1870 ha         1 NPZ       0.122000
     29 HAA          0.5640    -2.4910    -1.3910 ha         1 NPZ       0.128000
     30 HAB          3.0330    -2.4690    -1.5950 ha         1 NPZ       0.117000
     31 HAD          5.2070    -1.4530    -1.0530 ha         1 NPZ       0.115000
     32 HAE          6.5300     0.2870     0.1350 ha         1 NPZ       0.114000
     33 HAK          5.3750     2.0030     1.5270 ha         1 NPZ       0.114000
     34 HAJ          2.8970     1.9850     1.7290 ha         1 NPZ       0.114000
@<TRIPOS>BOND
     1     1     2 1   
     2     1     3 ar  
     3     1     4 ar  
     4     2    22 1   
     5     2    23 1   
     6     3     7 ar  
     7     3    11 1   
     8     4     5 ar  
     9     5     6 ar  
    10     5    24 1   
    11     6     7 ar  
    12     7     8 1   
    13     8     9 1   
    14     8    10 1   
    15     9    25 1   
    16     9    26 1   
    17     9    27 1   
    18    10    11 2   
    19    11    12 1   
    20    12    13 ar  
    21    12    14 ar  
    22    13    17 ar  
    23    13    28 1   
    24    14    15 ar  
    25    14    29 1   
    26    15    16 ar  
    27    15    30 1   
    28    16    17 ar  
    29    16    18 ar  
    30    17    21 ar  
    31    18    19 ar  
    32    18    31 1   
    33    19    20 ar  
    34    19    32 1   
    35    20    21 ar  
    36    20    33 1   
    37    21    34 1   
@<TRIPOS>SUBSTRUCTURE
     1 NPZ         1 TEMP              0 ****  ****    0 ROOT
