@<TRIPOS>MOLECULE
NQ0
   48    50     1     0     0
SMALL
abcg2


@<TRIPOS>ATOM
      1 C1         -20.6620   -24.9260    -3.2890 c          1 NQ0       0.590100
      2 C2         -21.9810   -24.6320    -3.9880 c3         1 NQ0       0.038600
      3 C3         -19.1090   -24.4300    -1.4550 c3         1 NQ0       0.108000
      4 C4         -17.9990   -23.4960    -1.9430 c6         1 NQ0      -0.084700
      5 C5         -16.6950   -23.7950    -1.1980 c6         1 NQ0      -0.094900
      6 C6         -15.5780   -22.8320    -1.5970 c6         1 NQ0       0.102500
      7 C11        -19.3130   -21.4330     2.8910 ca         1 NQ0      -0.060000
      8 C13        -16.9720   -21.6140     3.4360 ca         1 NQ0      -0.060000
      9 C14        -16.6530   -20.8110     2.3470 ca         1 NQ0      -0.175500
     10 C15        -15.1910   -18.2720     0.4720 cx         1 NQ0      -0.102400
     11 C16        -15.7910   -18.0980    -0.8900 cx         1 NQ0      -0.102400
     12 C18        -18.3810   -22.0210    -1.7820 c6         1 NQ0      -0.094900
     13 O1         -19.9450   -25.7840    -3.8050 o          1 NQ0      -0.605100
     14 N1         -20.3630   -24.2580    -2.1730 ns         1 NQ0      -0.493900
     15 N2         -16.0210   -21.4560    -1.3870 n          1 NQ0      -0.409800
     16 O2         -14.2460   -20.9230    -0.0860 o          1 NQ0      -0.601100
     17 C8         -16.0640   -19.3560    -0.1070 cx         1 NQ0       0.065200
     18 N3         -17.3810   -19.4930     0.4330 nu         1 NQ0      -0.941200
     19 C9         -17.6610   -20.3050     1.5140 ca         1 NQ0       0.321000
     20 C10        -18.9950   -20.6320     1.8070 ca         1 NQ0      -0.175500
     21 C12        -18.2970   -21.9220     3.7030 ca         1 NQ0       0.074000
     22 CL2        -18.6960   -22.9420     5.0770 cl         1 NQ0      -0.220000
     23 C17        -17.2150   -21.1110    -2.1530 c6         1 NQ0       0.102500
     24 H1         -21.7670   -24.3110    -5.0040 h1         1 NQ0       0.096700
     25 H2         -22.5720   -25.5430    -4.0110 h1         1 NQ0       0.096700
     26 CL1        -23.0170   -23.3510    -3.2420 cl         1 NQ0      -0.282000
     27 H4         -19.3080   -24.2460    -0.3980 h1         1 NQ0       0.064200
     28 H5         -18.7970   -25.4680    -1.5680 h1         1 NQ0       0.064200
     29 H6         -17.8370   -23.6930    -3.0090 hc         1 NQ0       0.063700
     30 H7         -16.8630   -23.7090    -0.1190 hc         1 NQ0       0.052700
     31 H8         -16.3740   -24.8200    -1.3990 hc         1 NQ0       0.052700
     32 H9         -14.6830   -22.9980    -1.0060 h1         1 NQ0       0.055950
     33 H10        -15.3230   -22.9640    -2.6530 h1         1 NQ0       0.055950
     34 H12        -16.1850   -21.9990     4.0700 ha         1 NQ0       0.127500
     35 H13        -15.6160   -20.5840     2.1470 ha         1 NQ0       0.124500
     36 H14        -14.1330   -18.4770     0.5420 hc         1 NQ0       0.087450
     37 H15        -15.6200   -17.7110     1.2900 hc         1 NQ0       0.087450
     38 H16        -15.1430   -18.1880    -1.7520 hc         1 NQ0       0.087450
     39 H17        -16.6240   -17.4170    -1.0090 hc         1 NQ0       0.087450
     40 H18        -18.6710   -21.8340    -0.7440 hc         1 NQ0       0.052700
     41 H19        -19.2380   -21.7770    -2.4120 hc         1 NQ0       0.052700
     42 H20        -21.0140   -23.5590    -1.8490 hn         1 NQ0       0.328500
     43 H21        -18.1520   -19.3100    -0.1880 hn         1 NQ0       0.480000
     44 H22        -19.7870   -20.2570     1.1700 ha         1 NQ0       0.124500
     45 H23        -16.9700   -21.2470    -3.2130 h1         1 NQ0       0.055950
     46 H24        -17.4580   -20.0640    -2.0200 h1         1 NQ0       0.055950
     47 C7         -15.3590   -20.6390    -0.5400 c          1 NQ0       0.619100
     48 H11        -20.3460   -21.6780     3.1000 ha         1 NQ0       0.127500
@<TRIPOS>BOND
     1     1     2 1   
     2     1    13 2   
     3     1    14 1   
     4     2    24 1   
     5     2    25 1   
     6     2    26 1   
     7     3     4 1   
     8     3    14 1   
     9     3    27 1   
    10     3    28 1   
    11     4     5 1   
    12     4    12 1   
    13     4    29 1   
    14     5     6 1   
    15     5    30 1   
    16     5    31 1   
    17     6    15 1   
    18     6    32 1   
    19     6    33 1   
    20     7    20 ar  
    21     7    21 ar  
    22     7    48 1   
    23     8     9 ar  
    24     8    21 ar  
    25     8    34 1   
    26     9    19 ar  
    27     9    35 1   
    28    10    11 1   
    29    10    17 1   
    30    10    36 1   
    31    10    37 1   
    32    11    17 1   
    33    11    38 1   
    34    11    39 1   
    35    12    23 1   
    36    12    40 1   
    37    12    41 1   
    38    14    42 1   
    39    15    23 1   
    40    15    47 1   
    41    16    47 2   
    42    17    18 1   
    43    17    47 1   
    44    18    19 1   
    45    18    43 1   
    46    19    20 ar  
    47    20    44 1   
    48    21    22 1   
    49    23    45 1   
    50    23    46 1   
@<TRIPOS>SUBSTRUCTURE
     1 NQ0         1 TEMP              0 ****  ****    0 ROOT
