@<TRIPOS>MOLECULE
NQ0
   48    50     1     0     0
SMALL
No Charge or Current Charge


@<TRIPOS>ATOM
      1 C1         -20.6140   -24.8120    -3.5180 c          1 NQ0       0.590100
      2 C2         -22.0310   -24.4340    -3.9670 c3         1 NQ0       0.038600
      3 C3         -18.9910   -24.6630    -1.5920 c3         1 NQ0       0.108000
      4 C4         -17.9210   -23.6320    -2.0570 c6         1 NQ0      -0.084700
      5 C5         -16.5430   -23.9170    -1.3930 c6         1 NQ0      -0.094900
      6 C6         -15.4880   -22.8650    -1.8120 c6         1 NQ0       0.102500
      7 C11        -19.3990   -21.3030     3.1340 ca         1 NQ0      -0.060000
      8 C13        -17.0460   -21.4770     3.7270 ca         1 NQ0      -0.060000
      9 C14        -16.7060   -20.7180     2.5920 ca         1 NQ0      -0.175500
     10 C15        -15.2400   -18.2200     0.3640 cx         1 NQ0      -0.102400
     11 C16        -15.9020   -18.1990    -0.9910 cx         1 NQ0      -0.102400
     12 C18        -18.3550   -22.1610    -1.7870 c6         1 NQ0      -0.094900
     13 O1         -19.8140   -25.3780    -4.2540 o          1 NQ0      -0.605100
     14 N1         -20.3010   -24.4640    -2.2210 ns         1 NQ0      -0.493900
     15 N2         -15.9730   -21.5000    -1.4920 n          1 NQ0      -0.409800
     16 O2         -14.3660   -21.0890     0.1110 o          1 NQ0      -0.601100
     17 C8         -16.1010   -19.3870    -0.0730 cx         1 NQ0       0.065200
     18 N3         -17.4060   -19.5090     0.5800 nu         1 NQ0      -0.941200
     19 C9         -17.7080   -20.2540     1.7210 ca         1 NQ0       0.321000
     20 C10        -19.0540   -20.5430     2.0000 ca         1 NQ0      -0.175500
     21 C12        -18.3930   -21.7700     3.9950 ca         1 NQ0       0.074000
     22 Cl2        -18.8210   -22.7200     5.4130 cl         1 NQ0      -0.220000
     23 C17        -17.2400   -21.1680    -2.1950 c6         1 NQ0       0.102500
     24 H1         -22.2110   -24.8510    -4.9640 h1         1 NQ0       0.096700
     25 H2         -22.7520   -24.8600    -3.2590 h1         1 NQ0       0.096700
     26 Cl1        -22.3040   -22.6260    -4.0420 cl         1 NQ0      -0.282000
     27 H4         -19.1120   -24.5860    -0.5030 h1         1 NQ0       0.064200
     28 H5         -18.6380   -25.6780    -1.8190 h1         1 NQ0       0.064200
     29 H6         -17.8090   -23.7660    -3.1420 hc         1 NQ0       0.063700
     30 H7         -16.6460   -23.9080    -0.2980 hc         1 NQ0       0.052700
     31 H8         -16.1910   -24.9210    -1.6670 hc         1 NQ0       0.052700
     32 H9         -14.5360   -23.0780    -1.3060 h1         1 NQ0       0.055950
     33 H10        -15.3040   -22.9390    -2.8930 h1         1 NQ0       0.055950
     34 H12        -16.2690   -21.8340     4.3980 ha         1 NQ0       0.127500
     35 H13        -15.6620   -20.4870     2.4040 ha         1 NQ0       0.124500
     36 H14        -14.1630   -18.3610     0.3970 hc         1 NQ0       0.087450
     37 H15        -15.6330   -17.5580     1.1310 hc         1 NQ0       0.087450
     38 H16        -15.2700   -18.3340    -1.8650 hc         1 NQ0       0.087450
     39 H17        -16.7340   -17.5150    -1.1360 hc         1 NQ0       0.087450
     40 H18        -18.5880   -22.0290    -0.7210 hc         1 NQ0       0.052700
     41 H19        -19.2720   -21.9220    -2.3420 hc         1 NQ0       0.052700
     42 H20        -21.0220   -23.9850    -1.6930 hn         1 NQ0       0.328500
     43 H21        -18.2330   -19.1450     0.1030 hn         1 NQ0       0.480000
     44 H22        -19.8360   -20.1880     1.3360 ha         1 NQ0       0.124500
     45 H23        -17.0720   -21.2420    -3.2790 h1         1 NQ0       0.055950
     46 H24        -17.5680   -20.1400    -2.0020 h1         1 NQ0       0.055950
     47 C7         -15.3900   -20.7210    -0.4570 c          1 NQ0       0.619100
     48 H11        -20.4420   -21.5290     3.3430 ha         1 NQ0       0.127500
@<TRIPOS>BOND
     1     1     2 1   
     2     1    13 2   
     3     1    14 1   
     4     2    24 1   
     5     2    25 1   
     6     2    26 1   
     7     3     4 1   
     8     3    14 1   
     9     3    27 1   
    10     3    28 1   
    11     4     5 1   
    12     4    12 1   
    13     4    29 1   
    14     5     6 1   
    15     5    30 1   
    16     5    31 1   
    17     6    15 1   
    18     6    32 1   
    19     6    33 1   
    20     7    20 ar  
    21     7    21 ar  
    22     7    48 1   
    23     8     9 ar  
    24     8    21 ar  
    25     8    34 1   
    26     9    19 ar  
    27     9    35 1   
    28    10    11 1   
    29    10    17 1   
    30    10    36 1   
    31    10    37 1   
    32    11    17 1   
    33    11    38 1   
    34    11    39 1   
    35    12    23 1   
    36    12    40 1   
    37    12    41 1   
    38    14    42 1   
    39    15    23 1   
    40    15    47 1   
    41    16    47 2   
    42    17    18 1   
    43    17    47 1   
    44    18    19 1   
    45    18    43 1   
    46    19    20 ar  
    47    20    44 1   
    48    21    22 1   
    49    23    45 1   
    50    23    46 1   
@<TRIPOS>SUBSTRUCTURE
     1 NQ0         1 TEMP              0 ****  ****    0 ROOT
