@<TRIPOS>MOLECULE
NQ1
   39    42     1     0     0
SMALL
abcg2


@<TRIPOS>ATOM
      1 C10          2.0390    -1.0380     0.5010 ca         1 NQ1      -0.165600
      2 C11          3.1730    -1.5700     1.1130 ca         1 NQ1      -0.038000
      3 C12          4.3780    -1.6430     0.4380 ca         1 NQ1      -0.139000
      4 C13          4.4440    -1.2220    -0.8850 ca         1 NQ1      -0.065000
      5 C14          3.3270    -0.6890    -1.5050 ca         1 NQ1      -0.167000
      6 C15          0.7310    -1.2090     1.1970 c          1 NQ1       0.604600
      7 C01         -0.4110     2.1980     1.1770 ca         1 NQ1      -0.159000
      8 C02         -0.3780     3.4090     0.5220 ca         1 NQ1       0.170000
      9 C04          0.0660     3.5240    -0.7790 ca         1 NQ1      -0.140000
     10 C05          0.5250     2.3830    -1.4120 ca         1 NQ1      -0.117000
     11 C06          0.4940     1.1420    -0.7850 ca         1 NQ1       0.229000
     12 C07         -0.0060     1.0420     0.5140 ca         1 NQ1       0.087600
     13 C09          2.1240    -0.5770    -0.8130 ca         1 NQ1       0.295000
     14 C19         -2.4040    -1.0580     0.4990 ca         1 NQ1      -0.115300
     15 C20         -2.5660    -2.4300     0.3330 ca         1 NQ1      -0.087000
     16 C21         -3.3230    -2.9270    -0.7200 ca         1 NQ1      -0.116000
     17 C22         -3.9200    -2.0560    -1.6210 ca         1 NQ1      -0.103000
     18 C23         -3.7620    -0.6860    -1.4620 ca         1 NQ1      -0.116000
     19 C24         -3.0100    -0.1910    -0.4070 ca         1 NQ1      -0.087000
     20 F03         -0.7870     4.5080     1.1770 f          1 NQ1      -0.175000
     21 N08          0.9950    -0.0060    -1.4180 na         1 NQ1      -0.927000
     22 N17         -0.1980    -0.2080     1.1400 n          1 NQ1      -0.317000
     23 O16          0.5150    -2.2400     1.8020 o          1 NQ1      -0.544000
     24 H1           3.1000    -1.9410     2.1270 ha         1 NQ1       0.132000
     25 H2           5.2530    -2.0440     0.9280 ha         1 NQ1       0.121000
     26 H3           5.3730    -1.2950    -1.4340 ha         1 NQ1       0.116000
     27 H4           3.3950    -0.3470    -2.5300 ha         1 NQ1       0.115000
     28 H5          -0.7590     2.1560     2.2010 ha         1 NQ1       0.141000
     29 H6           0.0830     4.4810    -1.2810 ha         1 NQ1       0.136000
     30 H7           0.9100     2.4620    -2.4210 ha         1 NQ1       0.119000
     31 H8          -1.9960     0.3940     2.0180 h1         1 NQ1       0.068200
     32 H9          -1.4800    -1.2260     2.4340 h1         1 NQ1       0.068200
     33 H10         -2.0960    -3.1130     1.0290 ha         1 NQ1       0.118000
     34 H11         -3.4480    -3.9950    -0.8360 ha         1 NQ1       0.111500
     35 H12         -4.5100    -2.4440    -2.4410 ha         1 NQ1       0.110000
     36 H13         -4.2300    -0.0020    -2.1590 ha         1 NQ1       0.111500
     37 H14         -2.8960     0.8810    -0.2860 ha         1 NQ1       0.118000
     38 H15          1.1110     0.1220    -2.4120 hn         1 NQ1       0.457000
     39 C18         -1.5520    -0.5150     1.6150 c3         1 NQ1       0.148300
@<TRIPOS>BOND
     1     1     2 ar  
     2     1     6 1   
     3     1    13 ar  
     4     2     3 ar  
     5     2    24 1   
     6     3     4 ar  
     7     3    25 1   
     8     4     5 ar  
     9     4    26 1   
    10     5    13 ar  
    11     5    27 1   
    12     6    22 1   
    13     6    23 2   
    14     7     8 ar  
    15     7    12 ar  
    16     7    28 1   
    17     8     9 ar  
    18     8    20 1   
    19     9    10 ar  
    20     9    29 1   
    21    10    11 ar  
    22    10    30 1   
    23    11    12 ar  
    24    11    21 1   
    25    12    22 1   
    26    13    21 1   
    27    14    15 ar  
    28    14    19 ar  
    29    14    39 1   
    30    15    16 ar  
    31    15    33 1   
    32    16    17 ar  
    33    16    34 1   
    34    17    18 ar  
    35    17    35 1   
    36    18    19 ar  
    37    18    36 1   
    38    19    37 1   
    39    21    38 1   
    40    22    39 1   
    41    31    39 1   
    42    32    39 1   
@<TRIPOS>SUBSTRUCTURE
     1 NQ1         1 TEMP              0 ****  ****    0 ROOT
