@<TRIPOS>MOLECULE
NQ1
   39    42     1     0     0
SMALL
No Charge or Current Charge


@<TRIPOS>ATOM
      1 C10          1.8920    -1.0310     0.1450 ca         1 NQ1      -0.165600
      2 C11          2.9190    -1.8740     0.6370 ca         1 NQ1      -0.038000
      3 C12          4.1860    -1.9030     0.0310 ca         1 NQ1      -0.139000
      4 C13          4.4480    -1.1010    -1.0870 ca         1 NQ1      -0.065000
      5 C14          3.4350    -0.2740    -1.5950 ca         1 NQ1      -0.167000
      6 C15          0.5320    -1.0970     0.8130 c          1 NQ1       0.604600
      7 C01         -0.3890     2.3860     1.2600 ca         1 NQ1      -0.159000
      8 C02          0.0210     3.6980     0.9840 ca         1 NQ1       0.170000
      9 C04          0.7930     3.9790    -0.1510 ca         1 NQ1      -0.140000
     10 C05          1.1830     2.9280    -0.9970 ca         1 NQ1      -0.117000
     11 C06          0.7780     1.6110    -0.7200 ca         1 NQ1       0.229000
     12 C07         -0.0800     1.3310     0.3690 ca         1 NQ1       0.087600
     13 C09          2.1690    -0.2390    -0.9880 ca         1 NQ1       0.295000
     14 C19         -2.5950    -1.2110     0.3890 ca         1 NQ1      -0.115300
     15 C20         -3.0960    -2.4260     0.8990 ca         1 NQ1      -0.087000
     16 C21         -3.8560    -3.2790     0.0790 ca         1 NQ1      -0.116000
     17 C22         -4.1200    -2.9220    -1.2540 ca         1 NQ1      -0.103000
     18 C23         -3.6240    -1.7130    -1.7670 ca         1 NQ1      -0.116000
     19 C24         -2.8640    -0.8590    -0.9480 ca         1 NQ1      -0.087000
     20 F03         -0.3140     4.6960     1.8300 f          1 NQ1      -0.175000
     21 N08          1.2270     0.5950    -1.5380 na         1 NQ1      -0.927000
     22 N17         -0.4060    -0.0280     0.7390 n          1 NQ1      -0.317000
     23 O16          0.2330    -2.1250     1.4150 o          1 NQ1      -0.544000
     24 H1           2.7400    -2.5120     1.5000 ha         1 NQ1       0.132000
     25 H2           4.9630    -2.5520     0.4290 ha         1 NQ1       0.121000
     26 H3           5.4270    -1.1220    -1.5600 ha         1 NQ1       0.116000
     27 H4           3.6360     0.3460    -2.4640 ha         1 NQ1       0.115000
     28 H5          -0.9490     2.1980     2.1710 ha         1 NQ1       0.141000
     29 H6           1.1110     4.9980    -0.3550 ha         1 NQ1       0.136000
     30 H7           1.8180     3.1320    -1.8550 ha         1 NQ1       0.119000
     31 H8          -2.3240     0.6630     1.3520 h1         1 NQ1       0.068200
     32 H9          -1.6930    -0.6900     2.2880 h1         1 NQ1       0.068200
     33 H10         -2.8940    -2.7120     1.9290 ha         1 NQ1       0.118000
     34 H11         -4.2390    -4.2160     0.4780 ha         1 NQ1       0.111500
     35 H12         -4.7080    -3.5830    -1.8880 ha         1 NQ1       0.110000
     36 H13         -3.8270    -1.4360    -2.7990 ha         1 NQ1       0.111500
     37 H14         -2.4810     0.0750    -1.3540 ha         1 NQ1       0.118000
     38 H15          1.0190     0.5770    -2.5330 hn         1 NQ1       0.457000
     39 C18         -1.7700    -0.2800     1.2720 c3         1 NQ1       0.148300
@<TRIPOS>BOND
     1     1     2 ar  
     2     1     6 1   
     3     1    13 ar  
     4     2     3 ar  
     5     2    24 1   
     6     3     4 ar  
     7     3    25 1   
     8     4     5 ar  
     9     4    26 1   
    10     5    13 ar  
    11     5    27 1   
    12     6    22 1   
    13     6    23 2   
    14     7     8 ar  
    15     7    12 ar  
    16     7    28 1   
    17     8     9 ar  
    18     8    20 1   
    19     9    10 ar  
    20     9    29 1   
    21    10    11 ar  
    22    10    30 1   
    23    11    12 ar  
    24    11    21 1   
    25    12    22 1   
    26    13    21 1   
    27    14    15 ar  
    28    14    19 ar  
    29    14    39 1   
    30    15    16 ar  
    31    15    33 1   
    32    16    17 ar  
    33    16    34 1   
    34    17    18 ar  
    35    17    35 1   
    36    18    19 ar  
    37    18    36 1   
    38    19    37 1   
    39    21    38 1   
    40    22    39 1   
    41    31    39 1   
    42    32    39 1   
@<TRIPOS>SUBSTRUCTURE
     1 NQ1         1 TEMP              0 ****  ****    0 ROOT
