@<TRIPOS>MOLECULE
NQ2
   70    73     1     0     0
SMALL
abcg2


@<TRIPOS>ATOM
      1 N1           5.3420     1.4640    -1.1450 nu         1 NQ2      -0.856100
      2 C4           3.6240    -0.1600    -0.5970 ca         1 NQ2      -0.010000
      3 C5           4.8060     0.4770    -0.2910 ca         1 NQ2       0.153000
      4 C6           4.9540     3.6400     0.5050 c3         1 NQ2      -0.377100
      5 C7           1.8290    -1.8140    -0.0180 cp         1 NQ2       0.007000
      6 C8           1.6780    -3.1710     0.2590 ca         1 NQ2      -0.120000
      7 C10          0.0160    -5.1840     0.1590 c5         1 NQ2       0.207900
      8 C13         -0.4490    -1.6980    -0.8530 ca         1 NQ2       0.176100
      9 C15         -2.8240     0.7310    -2.1610 c3         1 NQ2       0.172800
     10 C17         -4.7700     1.4290     0.9790 c6         1 NQ2      -0.072900
     11 C20         -5.1770     0.5020    -1.7080 c6         1 NQ2       0.171300
     12 C21         -7.2420     1.0290     1.5780 c3         1 NQ2       0.191000
     13 C22         -7.1440     2.0920     2.6670 c3         1 NQ2      -0.102600
     14 C24          0.7690    -1.0840    -0.5710 ca         1 NQ2      -0.190000
     15 O2           5.4390     3.7670    -2.0820 o          1 NQ2      -0.531500
     16 S            4.6710     2.9900    -1.1250 s6         1 NQ2       1.188100
     17 O1           3.2390     2.8270    -1.3050 o          1 NQ2      -0.531500
     18 C1           5.4670     0.1000     0.8930 ca         1 NQ2       0.564300
     19 O            6.6110     0.7210     1.1660 os         1 NQ2      -0.479300
     20 C            7.3070     0.3620     2.3530 c3         1 NQ2       0.161900
     21 C3           3.1030    -1.1290     0.2650 cp         1 NQ2      -0.110000
     22 C2           3.8460    -1.4130     1.4020 ca         1 NQ2       0.393900
     23 N            4.9990    -0.8220     1.7000 nb         1 NQ2      -0.744000
     24 C12         -0.5850    -3.0530    -0.5680 ca         1 NQ2      -0.152300
     25 C11         -1.7610    -3.9510    -0.7650 c5         1 NQ2       0.218900
     26 O3          -1.3200    -5.2240    -0.3150 os         1 NQ2      -0.467000
     27 C9           0.4590    -3.7660    -0.0240 ca         1 NQ2      -0.085300
     28 O4          -1.5240    -1.0890    -1.3740 os         1 NQ2      -0.327100
     29 C14         -1.4580     0.2950    -1.6800 c3         1 NQ2       0.163600
     30 N2          -3.8460     0.6060    -1.1450 n3         1 NQ2      -0.717600
     31 C19         -6.2070     0.2060    -0.6270 c6         1 NQ2      -0.072900
     32 C18         -6.2000     1.2800     0.4620 c6         1 NQ2      -0.083700
     33 C23         -8.6590     1.0600     0.9990 c3         1 NQ2      -0.102600
     34 C16         -3.7900     1.6670    -0.1600 c6         1 NQ2       0.171300
     35 H1           6.3560     1.4990    -1.1850 hn         1 NQ2       0.501000
     36 H2           3.1210     0.0840    -1.5230 ha         1 NQ2       0.152000
     37 H3           4.5250     4.6390     0.5400 h1         1 NQ2       0.103367
     38 H4           4.4630     3.0070     1.2400 h1         1 NQ2       0.103367
     39 H5           6.0240     3.6860     0.6930 h1         1 NQ2       0.103367
     40 H6           2.5010    -3.7490     0.6600 ha         1 NQ2       0.120000
     41 H7           0.0570    -5.4890     1.2120 h1         1 NQ2       0.054200
     42 H8           0.6420    -5.8840    -0.4070 h1         1 NQ2       0.054200
     43 H9          -2.7310     1.7610    -2.5450 h1         1 NQ2       0.043700
     44 H10         -3.1030     0.1130    -3.0180 h1         1 NQ2       0.043700
     45 H11         -4.6890     2.2660     1.6740 hc         1 NQ2       0.050950
     46 H12         -4.4750     0.5270     1.5220 hc         1 NQ2       0.050950
     47 H13         -5.4700     1.4250    -2.2410 h1         1 NQ2       0.028450
     48 H14         -5.1860    -0.3040    -2.4450 h1         1 NQ2       0.028450
     49 H15         -7.9740     2.0000     3.3680 hc         1 NQ2       0.041200
     50 H16         -6.2180     2.0150     3.2380 hc         1 NQ2       0.041200
     51 H17         -7.1850     3.0910     2.2310 hc         1 NQ2       0.041200
     52 H18          0.9050    -0.0260    -0.7540 ha         1 NQ2       0.129000
     53 H19          6.7000     0.5370     3.2420 h1         1 NQ2       0.052033
     54 H20          7.6150    -0.6840     2.3360 h1         1 NQ2       0.052033
     55 H21          8.1870     0.9980     2.3840 h1         1 NQ2       0.052033
     56 H22          3.4880    -2.1410     2.1210 h4         1 NQ2       0.030100
     57 H23         -2.6340    -3.6230    -0.1880 h1         1 NQ2       0.061200
     58 H24         -2.0700    -4.0080    -1.8150 h1         1 NQ2       0.061200
     59 H25         -0.7170     0.4790    -2.4660 h1         1 NQ2       0.041200
     60 H26         -1.1480     0.8670    -0.8000 h1         1 NQ2       0.041200
     61 H28         -7.1860     0.1230    -1.1020 hc         1 NQ2       0.050950
     62 H29         -5.9700    -0.7730    -0.1970 hc         1 NQ2       0.050950
     63 H30         -6.4810     2.2320    -0.0110 hc         1 NQ2       0.044700
     64 H31         -7.1900    -0.9240     1.6020 ho         1 NQ2       0.441000
     65 H32         -8.8700     2.0260     0.5360 hc         1 NQ2       0.041200
     66 H33         -8.8190     0.2910     0.2400 hc         1 NQ2       0.041200
     67 H34         -9.3960     0.9020     1.7880 hc         1 NQ2       0.041200
     68 H35         -4.0030     2.6500    -0.6210 h1         1 NQ2       0.028450
     69 H36         -2.7800     1.7310     0.2520 h1         1 NQ2       0.028450
     70 O5          -7.0080    -0.2150     2.2270 oh         1 NQ2      -0.659000
@<TRIPOS>BOND
     1     1     3 1   
     2     1    16 1   
     3     1    35 1   
     4     2     3 ar  
     5     2    21 ar  
     6     2    36 1   
     7     3    18 ar  
     8     4    16 1   
     9     4    37 1   
    10     4    38 1   
    11     4    39 1   
    12     5     6 ar  
    13     5    14 ar  
    14     5    21 1   
    15     6    27 ar  
    16     6    40 1   
    17     7    26 1   
    18     7    27 1   
    19     7    41 1   
    20     7    42 1   
    21     8    14 ar  
    22     8    24 ar  
    23     8    28 1   
    24     9    29 1   
    25     9    30 1   
    26     9    43 1   
    27     9    44 1   
    28    10    32 1   
    29    10    34 1   
    30    10    45 1   
    31    10    46 1   
    32    11    30 1   
    33    11    31 1   
    34    11    47 1   
    35    11    48 1   
    36    12    13 1   
    37    12    32 1   
    38    12    33 1   
    39    12    70 1   
    40    13    49 1   
    41    13    50 1   
    42    13    51 1   
    43    14    52 1   
    44    15    16 2   
    45    16    17 2   
    46    18    19 1   
    47    18    23 ar  
    48    19    20 1   
    49    20    53 1   
    50    20    54 1   
    51    20    55 1   
    52    21    22 ar  
    53    22    23 ar  
    54    22    56 1   
    55    24    25 1   
    56    24    27 ar  
    57    25    26 1   
    58    25    57 1   
    59    25    58 1   
    60    28    29 1   
    61    29    59 1   
    62    29    60 1   
    63    30    34 1   
    64    31    32 1   
    65    31    61 1   
    66    31    62 1   
    67    32    63 1   
    68    33    65 1   
    69    33    66 1   
    70    33    67 1   
    71    34    68 1   
    72    34    69 1   
    73    64    70 1   
@<TRIPOS>SUBSTRUCTURE
     1 NQ2         1 TEMP              0 ****  ****    0 ROOT
