@<TRIPOS>MOLECULE
NQ2
   70    73     1     0     0
SMALL
No Charge or Current Charge


@<TRIPOS>ATOM
      1 N1           5.6370     1.5290    -0.9930 nu         1 NQ2      -0.856100
      2 C4           3.8640    -0.1050    -0.4570 ca         1 NQ2      -0.010000
      3 C5           5.1130     0.4860    -0.1830 ca         1 NQ2       0.153000
      4 C6           3.9010     3.5410    -0.3900 c3         1 NQ2      -0.377100
      5 C7           2.0450    -1.7870     0.1120 cp         1 NQ2       0.007000
      6 C8           1.8390    -3.1670     0.3820 ca         1 NQ2      -0.120000
      7 C10          0.1430    -5.1670     0.3310 c5         1 NQ2       0.207900
      8 C13         -0.3020    -1.6360    -0.6580 ca         1 NQ2       0.176100
      9 C15         -2.7200     0.9280    -1.9670 c3         1 NQ2       0.172800
     10 C17         -4.9610     1.0330     1.1810 c6         1 NQ2      -0.072900
     11 C20         -5.1760     1.0090    -1.7410 c6         1 NQ2       0.171300
     12 C21         -7.5790     0.9840     1.4630 c3         1 NQ2       0.191000
     13 C22         -7.5210     1.7450     2.8130 c3         1 NQ2      -0.102600
     14 C24          0.9540    -1.0320    -0.4100 ca         1 NQ2      -0.190000
     15 O2           5.8890     3.7210    -2.1250 o          1 NQ2      -0.531500
     16 S            4.8350     2.7950    -1.7080 s6         1 NQ2       1.188100
     17 O1           3.9200     2.2140    -2.6910 o          1 NQ2      -0.531500
     18 C1           5.8440    -0.0150     0.9400 ca         1 NQ2       0.564300
     19 O            7.0710     0.5570     1.2190 os         1 NQ2      -0.479300
     20 C            7.8730     0.1110     2.3320 c3         1 NQ2       0.161900
     21 C3           3.3700    -1.1420     0.3720 cp         1 NQ2      -0.110000
     22 C2           4.1860    -1.5480     1.4580 ca         1 NQ2       0.393900
     23 N            5.3910    -1.0060     1.7420 nb         1 NQ2      -0.744000
     24 C12         -0.4480    -2.9990    -0.3770 ca         1 NQ2      -0.152300
     25 C11         -1.6670    -3.8640    -0.5480 c5         1 NQ2       0.218900
     26 O3          -1.1800    -5.2270    -0.3040 os         1 NQ2      -0.467000
     27 C9           0.5870    -3.7430     0.1280 ca         1 NQ2      -0.085300
     28 O4          -1.3860    -0.9450    -1.1580 os         1 NQ2      -0.327100
     29 C14         -1.3340     0.4670    -1.4390 c3         1 NQ2       0.163600
     30 N2          -3.8900     0.6900    -1.0690 n3         1 NQ2      -0.717600
     31 C19         -6.3930     0.6260    -0.8660 c6         1 NQ2      -0.072900
     32 C18         -6.3480     1.3290     0.5280 c6         1 NQ2      -0.083700
     33 C23         -8.9380     1.3010     0.7870 c3         1 NQ2      -0.102600
     34 C16         -3.7870     1.3940     0.2390 c6         1 NQ2       0.171300
     35 H1           6.5250     1.9210    -0.6990 hn         1 NQ2       0.501000
     36 H2           3.2850     0.2110    -1.3170 ha         1 NQ2       0.152000
     37 H3           3.3740     4.4030    -0.8100 h1         1 NQ2       0.103367
     38 H4           3.1970     2.7920    -0.0150 h1         1 NQ2       0.103367
     39 H5           4.6090     3.8480     0.3860 h1         1 NQ2       0.103367
     40 H6           2.6450    -3.7840     0.7700 ha         1 NQ2       0.120000
     41 H7           0.0490    -5.4070     1.3980 h1         1 NQ2       0.054200
     42 H8           0.8190    -5.8880    -0.1470 h1         1 NQ2       0.054200
     43 H9          -2.6500     1.9990    -2.2010 h1         1 NQ2       0.043700
     44 H10         -2.8870     0.4130    -2.9230 h1         1 NQ2       0.043700
     45 H11         -4.8380     1.6040     2.1090 hc         1 NQ2       0.050950
     46 H12         -4.8870    -0.0280     1.4540 hc         1 NQ2       0.050950
     47 H13         -5.2260     2.0830    -1.9760 h1         1 NQ2       0.028450
     48 H14         -5.2490     0.4670    -2.6960 h1         1 NQ2       0.028450
     49 H15         -8.4250     1.5630     3.4070 hc         1 NQ2       0.041200
     50 H16         -6.6680     1.4250     3.4220 hc         1 NQ2       0.041200
     51 H17         -7.4390     2.8250     2.6470 hc         1 NQ2       0.041200
     52 H18          1.0940     0.0260    -0.6020 ha         1 NQ2       0.129000
     53 H19          7.3390     0.2460     3.2810 h1         1 NQ2       0.052033
     54 H20          8.1340    -0.9510     2.2270 h1         1 NQ2       0.052033
     55 H21          8.8070     0.6850     2.3850 h1         1 NQ2       0.052033
     56 H22          3.8530    -2.3330     2.1340 h4         1 NQ2       0.030100
     57 H23         -2.4410    -3.6110     0.1890 h1         1 NQ2       0.061200
     58 H24         -2.0910    -3.7930    -1.5590 h1         1 NQ2       0.061200
     59 H25         -0.5770     0.6780    -2.2050 h1         1 NQ2       0.041200
     60 H26         -1.0730     1.0350    -0.5380 h1         1 NQ2       0.041200
     61 H28         -7.3030     0.9020    -1.4130 hc         1 NQ2       0.050950
     62 H29         -6.4150    -0.4660    -0.7470 hc         1 NQ2       0.050950
     63 H30         -6.4050     2.4120     0.3510 hc         1 NQ2       0.044700
     64 H31         -7.4270    -0.8880     0.9370 ho         1 NQ2       0.441000
     65 H32         -8.9720     2.3470     0.4570 hc         1 NQ2       0.041200
     66 H33         -9.1200     0.6610    -0.0830 hc         1 NQ2       0.041200
     67 H34         -9.7710     1.1410     1.4830 hc         1 NQ2       0.041200
     68 H35         -3.7730     2.4830     0.0830 h1         1 NQ2       0.028450
     69 H36         -2.8520     1.1280     0.7500 h1         1 NQ2       0.028450
     70 O5          -7.5880    -0.4100     1.7770 oh         1 NQ2      -0.659000
@<TRIPOS>BOND
     1     1     3 1   
     2     1    16 1   
     3     1    35 1   
     4     2     3 ar  
     5     2    21 ar  
     6     2    36 1   
     7     3    18 ar  
     8     4    16 1   
     9     4    37 1   
    10     4    38 1   
    11     4    39 1   
    12     5     6 ar  
    13     5    14 ar  
    14     5    21 1   
    15     6    27 ar  
    16     6    40 1   
    17     7    26 1   
    18     7    27 1   
    19     7    41 1   
    20     7    42 1   
    21     8    14 ar  
    22     8    24 ar  
    23     8    28 1   
    24     9    29 1   
    25     9    30 1   
    26     9    43 1   
    27     9    44 1   
    28    10    32 1   
    29    10    34 1   
    30    10    45 1   
    31    10    46 1   
    32    11    30 1   
    33    11    31 1   
    34    11    47 1   
    35    11    48 1   
    36    12    13 1   
    37    12    32 1   
    38    12    33 1   
    39    12    70 1   
    40    13    49 1   
    41    13    50 1   
    42    13    51 1   
    43    14    52 1   
    44    15    16 2   
    45    16    17 2   
    46    18    19 1   
    47    18    23 ar  
    48    19    20 1   
    49    20    53 1   
    50    20    54 1   
    51    20    55 1   
    52    21    22 ar  
    53    22    23 ar  
    54    22    56 1   
    55    24    25 1   
    56    24    27 ar  
    57    25    26 1   
    58    25    57 1   
    59    25    58 1   
    60    28    29 1   
    61    29    59 1   
    62    29    60 1   
    63    30    34 1   
    64    31    32 1   
    65    31    61 1   
    66    31    62 1   
    67    32    63 1   
    68    33    65 1   
    69    33    66 1   
    70    33    67 1   
    71    34    68 1   
    72    34    69 1   
    73    64    70 1   
@<TRIPOS>SUBSTRUCTURE
     1 NQ2         1 TEMP              0 ****  ****    0 ROOT
