@<TRIPOS>MOLECULE
NQ3
   32    34     1     0     0
SMALL
abcg2


@<TRIPOS>ATOM
      1 N1           8.5860    -0.4540    20.5510 n          1 NQ3      -0.223200
      2 C4           7.9150     0.0210    18.2740 ca         1 NQ3       0.357900
      3 C5           7.6300     0.0570    19.6340 ca         1 NQ3      -0.002400
      4 C6           8.4170    -1.5680    21.3770 cc         1 NQ3      -0.146400
      5 C7           9.5480    -1.7300    22.0800 cd         1 NQ3      -0.159400
      6 C8           9.8440     0.0950    20.7360 c          1 NQ3       0.580000
      7 C10         12.3030     0.7010    22.3920 ca         1 NQ3      -0.106000
      8 C13         13.7880    -1.5640    22.9590 ca         1 NQ3       0.138000
      9 CL          14.7210    -3.0030    23.3120 cl         1 NQ3      -0.208000
     10 C12         14.3570    -0.3160    23.1690 ca         1 NQ3      -0.112000
     11 C11         13.5990     0.8130    22.8770 ca         1 NQ3      -0.084000
     12 C14         12.5010    -1.7090    22.4630 ca         1 NQ3      -0.130000
     13 C9          11.7550    -0.5640    22.1850 ca         1 NQ3       0.080600
     14 N2          10.4340    -0.7100    21.7070 n          1 NQ3      -0.218200
     15 O           10.3250     1.0640    20.1610 o          1 NQ3      -0.551000
     16 C1           6.4240     0.6020    20.0820 ca         1 NQ3      -0.032300
     17 C            6.0770     0.6930    21.5370 c3         1 NQ3      -0.051800
     18 N            7.0860     0.4840    17.3400 nb         1 NQ3      -0.654000
     19 C3           5.9220     0.9950    17.7580 ca         1 NQ3       0.339900
     20 C2           5.5580     1.0690    19.0940 ca         1 NQ3      -0.163000
     21 H1           8.8560    -0.4010    17.9400 h4         1 NQ3       0.035100
     22 H2           7.5020    -2.1310    21.3850 h4         1 NQ3       0.232000
     23 H3           9.8050    -2.4550    22.8290 h4         1 NQ3       0.233000
     24 H4          11.7170     1.5810    22.1790 ha         1 NQ3       0.145000
     25 H5          15.3640    -0.2290    23.5530 ha         1 NQ3       0.133000
     26 H6          14.0240     1.7940    23.0410 ha         1 NQ3       0.125000
     27 H7          12.0910    -2.6930    22.2880 ha         1 NQ3       0.135000
     28 H8           5.7790    -0.2830    21.9280 hc         1 NQ3       0.052700
     29 H9           6.9350     1.0270    22.1230 hc         1 NQ3       0.052700
     30 H10          5.2500     1.3850    21.6890 hc         1 NQ3       0.052700
     31 H11          5.2520     1.3650    16.9900 h4         1 NQ3       0.024100
     32 H12          4.6070     1.5050    19.3710 ha         1 NQ3       0.125000
@<TRIPOS>BOND
     1     1     3 1   
     2     1     4 1   
     3     1     6 1   
     4     2     3 ar  
     5     2    18 ar  
     6     2    21 1   
     7     3    16 ar  
     8     4     5 2   
     9     4    22 1   
    10     5    14 1   
    11     5    23 1   
    12     6    14 1   
    13     6    15 2   
    14     7    11 ar  
    15     7    13 ar  
    16     7    24 1   
    17     8     9 1   
    18     8    10 ar  
    19     8    12 ar  
    20    10    11 ar  
    21    10    25 1   
    22    11    26 1   
    23    12    13 ar  
    24    12    27 1   
    25    13    14 1   
    26    16    17 1   
    27    16    20 ar  
    28    17    28 1   
    29    17    29 1   
    30    17    30 1   
    31    18    19 ar  
    32    19    20 ar  
    33    19    31 1   
    34    20    32 1   
@<TRIPOS>SUBSTRUCTURE
     1 NQ3         1 TEMP              0 ****  ****    0 ROOT
