@<TRIPOS>MOLECULE
NQ3
   32    34     1     0     0
SMALL
No Charge or Current Charge


@<TRIPOS>ATOM
      1 N1           8.6560    -0.3240    20.4920 n          1 NQ3      -0.223200
      2 C4           7.9320     0.4040    18.2570 ca         1 NQ3       0.357900
      3 C5           7.6330     0.2380    19.6340 ca         1 NQ3      -0.002400
      4 C6           8.4380    -1.2240    21.5430 cc         1 NQ3      -0.146400
      5 C7           9.6290    -1.4190    22.2050 cd         1 NQ3      -0.159400
      6 C8          10.0100     0.0570    20.4890 c          1 NQ3       0.580000
      7 C10         12.5340     0.6460    22.2660 ca         1 NQ3      -0.106000
      8 C13         13.8230    -1.6900    23.1310 ca         1 NQ3       0.138000
      9 Cl          14.6340    -3.1570    23.6650 cl         1 NQ3      -0.208000
     10 C12         14.4610    -0.4480    23.2730 ca         1 NQ3      -0.112000
     11 C11         13.8160     0.7230    22.8390 ca         1 NQ3      -0.084000
     12 C14         12.5430    -1.7680    22.5600 ca         1 NQ3      -0.130000
     13 C9          11.8860    -0.5980    22.1270 ca         1 NQ3       0.080600
     14 N2          10.5800    -0.6660    21.5370 n          1 NQ3      -0.218200
     15 O           10.5630     0.8650    19.7530 o          1 NQ3      -0.551000
     16 C1           6.2880     0.4650    20.0420 ca         1 NQ3      -0.032300
     17 C            5.8110     0.3920    21.4900 c3         1 NQ3      -0.051800
     18 N            7.0350     0.8030    17.3220 nb         1 NQ3      -0.654000
     19 C3           5.7720     1.0400    17.7310 ca         1 NQ3       0.339900
     20 C2           5.3650     0.8820    19.0630 ca         1 NQ3      -0.163000
     21 H1           8.9270     0.1800    17.8760 h4         1 NQ3       0.035100
     22 H2           7.4510    -1.6500    21.6920 h4         1 NQ3       0.232000
     23 H3           9.8850    -2.0200    23.0750 h4         1 NQ3       0.233000
     24 H4          12.0410     1.5570    21.9370 ha         1 NQ3       0.145000
     25 H5          15.4520    -0.3930    23.7160 ha         1 NQ3       0.133000
     26 H6          14.3080     1.6870    22.9460 ha         1 NQ3       0.125000
     27 H7          12.0710    -2.7390    22.4430 ha         1 NQ3       0.135000
     28 H8           5.4360    -0.6080    21.7370 hc         1 NQ3       0.052700
     29 H9           6.6070     0.6540    22.1970 hc         1 NQ3       0.052700
     30 H10          4.9900     1.0970    21.6710 hc         1 NQ3       0.052700
     31 H11          5.0660     1.3640    16.9680 h4         1 NQ3       0.024100
     32 H12          4.3320     1.0930    19.3280 ha         1 NQ3       0.125000
@<TRIPOS>BOND
     1     1     3 1   
     2     1     4 1   
     3     1     6 1   
     4     2     3 ar  
     5     2    18 ar  
     6     2    21 1   
     7     3    16 ar  
     8     4     5 2   
     9     4    22 1   
    10     5    14 1   
    11     5    23 1   
    12     6    14 1   
    13     6    15 2   
    14     7    11 ar  
    15     7    13 ar  
    16     7    24 1   
    17     8     9 1   
    18     8    10 ar  
    19     8    12 ar  
    20    10    11 ar  
    21    10    25 1   
    22    11    26 1   
    23    12    13 ar  
    24    12    27 1   
    25    13    14 1   
    26    16    17 1   
    27    16    20 ar  
    28    17    28 1   
    29    17    29 1   
    30    17    30 1   
    31    18    19 ar  
    32    19    20 ar  
    33    19    31 1   
    34    20    32 1   
@<TRIPOS>SUBSTRUCTURE
     1 NQ3         1 TEMP              0 ****  ****    0 ROOT
