@<TRIPOS>MOLECULE
NQ5
   70    74     1     0     0
SMALL
abcg2


@<TRIPOS>ATOM
      1 N1          -4.4970    -0.2280     0.8330 nb         1 NQ5      -0.744000
      2 C4          -1.9660     0.5210     0.0310 ca         1 NQ5      -0.006000
      3 C5          -2.2990    -0.8360     0.0900 cp         1 NQ5      -0.113000
      4 C6          -3.5860    -1.1390     0.5090 ca         1 NQ5       0.395900
      5 C7          -4.1790     1.0430     0.7540 ca         1 NQ5       0.568300
      6 C10         -1.7620    -3.0830    -0.8370 ca         1 NQ5      -0.117000
      7 C13          1.2760    -5.1060    -1.2220 c5         1 NQ5       0.218900
      8 C15          0.9590    -2.7060    -0.2380 ca         1 NQ5       0.174100
      9 C17          4.2880    -1.5950     0.7290 c6         1 NQ5       0.164300
     10 C20          5.8820    -2.7840     1.9540 c6         1 NQ5       0.155600
     11 C21          6.9770     0.7680     1.7740 cy         1 NQ5       0.103500
     12 C22          8.5080     0.7680     1.7300 cy         1 NQ5       0.144100
     13 C24          0.0260    -1.7140     0.0500 ca         1 NQ5      -0.187000
     14 O2          -1.7350     2.8460    -2.0420 o          1 NQ5      -0.527000
     15 S           -2.5340     3.6530    -1.1340 s6         1 NQ5       1.184100
     16 O1          -2.1260     5.0120    -0.8240 o          1 NQ5      -0.527000
     17 C2          -4.2140     3.6860    -1.7460 c3         1 NQ5      -0.346400
     18 C1          -4.2960     4.4310    -3.0710 c3         1 NQ5       0.191600
     19 O           -5.6390     4.4040    -3.4680 os         1 NQ5      -0.448000
     20 C           -5.8570     5.1080    -4.6680 c3         1 NQ5       0.141900
     21 C3          -2.9000     1.4790     0.3610 ca         1 NQ5       0.156000
     22 O3          -5.0660     1.9820     1.0660 os         1 NQ5      -0.478300
     23 C9          -1.3310    -1.8980    -0.2440 cp         1 NQ5       0.014000
     24 C14          0.5130    -3.8850    -0.8240 ca         1 NQ5      -0.150300
     25 O4           0.3210    -5.9230    -1.8800 os         1 NQ5      -0.464000
     26 C12         -0.9950    -5.4180    -1.7220 c5         1 NQ5       0.206900
     27 C11         -0.8210    -4.0610    -1.1120 ca         1 NQ5      -0.084300
     28 C16          2.7970    -1.4270     0.5580 c3         1 NQ5       0.165600
     29 O6           4.5070    -2.6000     1.6930 os         1 NQ5      -0.442000
     30 C19          6.5320    -1.4960     2.4160 c6         1 NQ5       0.122800
     31 N2           6.3380    -0.4690     1.4070 n3         1 NQ5      -0.702600
     32 C18          4.9210    -0.2770     1.1580 c6         1 NQ5       0.129800
     33 C23          7.0980     1.8130     0.6600 cy         1 NQ5       0.144100
     34 O7           8.5270     1.8310     0.7700 oq         1 NQ5      -0.444000
     35 H1          -0.9780     0.8360    -0.2760 ha         1 NQ5       0.149000
     36 H2          -3.8990    -2.1730     0.6100 h4         1 NQ5       0.029100
     37 H3          -6.8740     1.0170     0.6760 h1         1 NQ5       0.053367
     38 H4          -6.3390     0.9640     2.3680 h1         1 NQ5       0.053367
     39 H5          -6.9160     2.4910     1.6670 h1         1 NQ5       0.053367
     40 H6          -2.8040    -3.2290    -1.0930 ha         1 NQ5       0.121000
     41 H7           2.1050    -4.8880    -1.9040 h1         1 NQ5       0.061700
     42 H8           4.7350    -1.8890    -0.2330 h1         1 NQ5       0.064700
     43 H9           5.9630    -3.5480     2.7280 h1         1 NQ5       0.056700
     44 H10          6.4000    -3.1520     1.0580 h1         1 NQ5       0.056700
     45 H11          6.5740     1.1820     2.7110 h1         1 NQ5       0.045700
     46 H12          9.0180     1.0340     2.6590 h1         1 NQ5       0.057450
     47 H13          8.9410    -0.1580     1.3370 h1         1 NQ5       0.057450
     48 H14          0.3370    -0.7940     0.5270 ha         1 NQ5       0.120000
     49 H15         -4.5380     2.6500    -1.8620 h1         1 NQ5       0.107200
     50 H16         -4.8230     4.1700    -0.9820 h1         1 NQ5       0.107200
     51 H17         -3.9420     5.4630    -2.9450 h1         1 NQ5       0.038700
     52 H18         -3.6520     3.9500    -3.8170 h1         1 NQ5       0.038700
     53 H19         -6.9200     5.0490    -4.8990 h1         1 NQ5       0.032367
     54 H20         -5.5780     6.1640    -4.5790 h1         1 NQ5       0.032367
     55 H21         -5.2950     4.6770    -5.5040 h1         1 NQ5       0.032367
     56 H22         -2.9810     3.4210     1.0600 hn         1 NQ5       0.503000
     57 H23         -1.4950    -5.3800    -2.6950 h1         1 NQ5       0.056200
     58 H24          2.3320    -1.2030     1.5250 h1         1 NQ5       0.046200
     59 H25          2.6010    -0.5840    -0.1140 h1         1 NQ5       0.046200
     60 H26          6.1160    -1.1940     3.3930 h1         1 NQ5       0.044700
     61 H27          7.6000    -1.6740     2.5590 h1         1 NQ5       0.044700
     62 H29          4.7900     0.4540     0.3560 h1         1 NQ5       0.044200
     63 H30          4.3970     0.1140     2.0490 h1         1 NQ5       0.044200
     64 H31          6.7590     1.4610    -0.3190 h1         1 NQ5       0.057450
     65 H32          6.6510     2.7890     0.8640 h1         1 NQ5       0.057450
     66 H28         -1.5920    -6.0700    -1.0720 h1         1 NQ5       0.056200
     67 H33          1.7000    -5.6210    -0.3500 h1         1 NQ5       0.061700
     68 N           -2.5780     2.8530     0.3220 nu         1 NQ5      -0.866100
     69 O5           2.2760    -2.6250     0.0130 os         1 NQ5      -0.328100
     70 C8          -6.3700     1.5750     1.4660 c3         1 NQ5       0.161900
@<TRIPOS>BOND
     1     1     4 ar  
     2     1     5 ar  
     3     2     3 ar  
     4     2    21 ar  
     5     2    35 1   
     6     3     4 ar  
     7     3    23 1   
     8     4    36 1   
     9     5    21 ar  
    10     5    22 1   
    11     6    23 ar  
    12     6    27 ar  
    13     6    40 1   
    14     7    24 1   
    15     7    25 1   
    16     7    41 1   
    17     7    67 1   
    18     8    13 ar  
    19     8    24 ar  
    20     8    69 1   
    21     9    28 1   
    22     9    29 1   
    23     9    32 1   
    24     9    42 1   
    25    10    29 1   
    26    10    30 1   
    27    10    43 1   
    28    10    44 1   
    29    11    12 1   
    30    11    31 1   
    31    11    33 1   
    32    11    45 1   
    33    12    34 1   
    34    12    46 1   
    35    12    47 1   
    36    13    23 ar  
    37    13    48 1   
    38    14    15 2   
    39    15    16 2   
    40    15    17 1   
    41    15    68 1   
    42    17    18 1   
    43    17    49 1   
    44    17    50 1   
    45    18    19 1   
    46    18    51 1   
    47    18    52 1   
    48    19    20 1   
    49    20    53 1   
    50    20    54 1   
    51    20    55 1   
    52    21    68 1   
    53    22    70 1   
    54    24    27 ar  
    55    25    26 1   
    56    26    27 1   
    57    26    57 1   
    58    26    66 1   
    59    28    58 1   
    60    28    59 1   
    61    28    69 1   
    62    30    31 1   
    63    30    60 1   
    64    30    61 1   
    65    31    32 1   
    66    32    62 1   
    67    32    63 1   
    68    33    34 1   
    69    33    64 1   
    70    33    65 1   
    71    37    70 1   
    72    38    70 1   
    73    39    70 1   
    74    56    68 1   
@<TRIPOS>SUBSTRUCTURE
     1 NQ5         1 TEMP              0 ****  ****    0 ROOT
