@<TRIPOS>MOLECULE
NQ5
   70    74     1     0     0
SMALL
No Charge or Current Charge


@<TRIPOS>ATOM
      1 N1          -5.0680    -0.5070     1.5570 nb         1 NQ5      -0.744000
      2 C4          -2.6410     0.4630     0.4890 ca         1 NQ5      -0.006000
      3 C5          -2.8880    -0.9310     0.5360 cp         1 NQ5      -0.113000
      4 C6          -4.1260    -1.3500     1.0810 ca         1 NQ5       0.395900
      5 C7          -4.8130     0.8200     1.5040 ca         1 NQ5       0.568300
      6 C10         -2.3030    -3.1260    -0.5930 ca         1 NQ5      -0.117000
      7 C13          0.7970    -4.9170    -1.5020 c5         1 NQ5       0.218900
      8 C15          0.4660    -2.6130    -0.3090 ca         1 NQ5       0.174100
      9 C17          3.9420    -1.3360     0.3820 c6         1 NQ5       0.164300
     10 C20          5.8010    -2.5780     1.2970 c6         1 NQ5       0.155600
     11 C21          6.7530     1.1690     1.2760 cy         1 NQ5       0.103500
     12 C22          8.2970     1.3140     1.0630 cy         1 NQ5       0.144100
     13 C24         -0.4870    -1.6820     0.1680 ca         1 NQ5      -0.187000
     14 O2          -1.1410     3.2720    -0.0490 o          1 NQ5      -0.527000
     15 S           -2.5390     3.6940    -0.1540 s6         1 NQ5       1.184100
     16 O1          -2.9230     5.0740     0.1390 o          1 NQ5      -0.527000
     17 C2          -3.1900     3.2330    -1.7480 c3         1 NQ5      -0.346400
     18 C1          -2.5090     4.0220    -2.8670 c3         1 NQ5       0.191600
     19 O           -3.1010     3.5730    -4.0930 os         1 NQ5      -0.448000
     20 C           -2.5820     4.2080    -5.2730 c3         1 NQ5       0.141900
     21 C3          -3.6050     1.3720     0.9700 ca         1 NQ5       0.156000
     22 O3          -5.7700     1.7000     1.9780 os         1 NQ5      -0.478300
     23 C9          -1.8850    -1.9210     0.0320 cp         1 NQ5       0.014000
     24 C14         -0.0010    -3.7830    -0.9200 ca         1 NQ5      -0.150300
     25 O4          -0.2020    -5.7460    -2.1890 os         1 NQ5      -0.464000
     26 C12         -1.5460    -5.3570    -1.7470 c5         1 NQ5       0.206900
     27 C11         -1.3410    -4.0340    -1.0580 ca         1 NQ5      -0.084300
     28 C16          2.3900    -1.2500     0.4200 c3         1 NQ5       0.165600
     29 O6           4.3650    -2.3990     1.2770 os         1 NQ5      -0.442000
     30 C19          6.5030    -1.2590     1.7320 c6         1 NQ5       0.122800
     31 N2           6.0980    -0.1080     0.8670 n3         1 NQ5      -0.702600
     32 C18          4.6070     0.0080     0.8100 c6         1 NQ5       0.129800
     33 C23          6.7040     2.3810     0.2860 cy         1 NQ5       0.144100
     34 O7           8.0550     2.7380     0.7600 oq         1 NQ5      -0.444000
     35 H1          -1.7060     0.8240     0.0740 ha         1 NQ5       0.149000
     36 H2          -4.3660    -2.4110     1.1530 h4         1 NQ5       0.029100
     37 H3          -7.5830     0.6530     1.7920 h1         1 NQ5       0.053367
     38 H4          -6.8370     0.5890     3.4090 h1         1 NQ5       0.053367
     39 H5          -7.6360     2.0750     2.8540 h1         1 NQ5       0.053367
     40 H6          -3.3590    -3.3460    -0.7290 ha         1 NQ5       0.121000
     41 H7           1.5530    -4.5720    -2.2200 h1         1 NQ5       0.061700
     42 H8           4.2540    -1.5820    -0.6440 h1         1 NQ5       0.064700
     43 H9           6.0540    -3.3870     1.9970 h1         1 NQ5       0.056700
     44 H10          6.1440    -2.8730     0.2940 h1         1 NQ5       0.056700
     45 H11          6.4590     1.4670     2.2890 h1         1 NQ5       0.045700
     46 H12          8.9160     1.1670     1.9540 h1         1 NQ5       0.057450
     47 H13          8.6940     0.7750     0.1950 h1         1 NQ5       0.057450
     48 H14         -0.1580    -0.7730     0.6620 ha         1 NQ5       0.120000
     49 H15         -3.0130     2.1600    -1.8650 h1         1 NQ5       0.107200
     50 H16         -4.2640     3.4400    -1.7210 h1         1 NQ5       0.107200
     51 H17         -2.6740     5.0990    -2.7260 h1         1 NQ5       0.038700
     52 H18         -1.4270     3.8270    -2.8630 h1         1 NQ5       0.038700
     53 H19         -3.0800     3.8160    -6.1690 h1         1 NQ5       0.032367
     54 H20         -2.7470     5.2930    -5.2380 h1         1 NQ5       0.032367
     55 H21         -1.5040     4.0240    -5.3740 h1         1 NQ5       0.032367
     56 H22         -4.1630     3.3640     1.2400 hn         1 NQ5       0.503000
     57 H23         -2.2150    -5.2770    -2.6150 h1         1 NQ5       0.056200
     58 H24          2.0630    -1.1590     1.4640 h1         1 NQ5       0.046200
     59 H25          2.0770    -0.3490    -0.1230 h1         1 NQ5       0.046200
     60 H26          6.2470    -1.0560     2.7830 h1         1 NQ5       0.044700
     61 H27          7.5920    -1.4090     1.6890 h1         1 NQ5       0.044700
     62 H29          4.3130     0.7910     0.0960 h1         1 NQ5       0.044200
     63 H30          4.2120     0.3030     1.7930 h1         1 NQ5       0.044200
     64 H31          6.7030     2.1070    -0.7760 h1         1 NQ5       0.057450
     65 H32          5.9560     3.1490     0.5110 h1         1 NQ5       0.057450
     66 H28         -1.9380    -6.1120    -1.0530 h1         1 NQ5       0.056200
     67 H33          1.2860    -5.5060    -0.7140 h1         1 NQ5       0.061700
     68 N           -3.3920     2.7760     0.9370 nu         1 NQ5      -0.866100
     69 O5           1.8280    -2.4240    -0.1980 os         1 NQ5      -0.328100
     70 C8          -7.0140     1.2280     2.5340 c3         1 NQ5       0.161900
@<TRIPOS>BOND
     1     1     4 ar  
     2     1     5 ar  
     3     2     3 ar  
     4     2    21 ar  
     5     2    35 1   
     6     3     4 ar  
     7     3    23 1   
     8     4    36 1   
     9     5    21 ar  
    10     5    22 1   
    11     6    23 ar  
    12     6    27 ar  
    13     6    40 1   
    14     7    24 1   
    15     7    25 1   
    16     7    41 1   
    17     7    67 1   
    18     8    13 ar  
    19     8    24 ar  
    20     8    69 1   
    21     9    28 1   
    22     9    29 1   
    23     9    32 1   
    24     9    42 1   
    25    10    29 1   
    26    10    30 1   
    27    10    43 1   
    28    10    44 1   
    29    11    12 1   
    30    11    31 1   
    31    11    33 1   
    32    11    45 1   
    33    12    34 1   
    34    12    46 1   
    35    12    47 1   
    36    13    23 ar  
    37    13    48 1   
    38    14    15 2   
    39    15    16 2   
    40    15    17 1   
    41    15    68 1   
    42    17    18 1   
    43    17    49 1   
    44    17    50 1   
    45    18    19 1   
    46    18    51 1   
    47    18    52 1   
    48    19    20 1   
    49    20    53 1   
    50    20    54 1   
    51    20    55 1   
    52    21    68 1   
    53    22    70 1   
    54    24    27 ar  
    55    25    26 1   
    56    26    27 1   
    57    26    57 1   
    58    26    66 1   
    59    28    58 1   
    60    28    59 1   
    61    28    69 1   
    62    30    31 1   
    63    30    60 1   
    64    30    61 1   
    65    31    32 1   
    66    32    62 1   
    67    32    63 1   
    68    33    34 1   
    69    33    64 1   
    70    33    65 1   
    71    37    70 1   
    72    38    70 1   
    73    39    70 1   
    74    56    68 1   
@<TRIPOS>SUBSTRUCTURE
     1 NQ5         1 TEMP              0 ****  ****    0 ROOT
