@<TRIPOS>MOLECULE
NQ6
   25    25     1     0     0
SMALL
abcg2


@<TRIPOS>ATOM
      1 C4           0.1320     3.4000    34.4100 ca         1 NQ6      -0.235000
      2 C5          -0.9340     4.1080    33.8890 ca         1 NQ6       0.375900
      3 C10         -5.8880     7.1120    37.3730 c3         1 NQ6       0.029500
      4 C1          -1.8110     4.5500    35.9410 ca         1 NQ6       0.515900
      5 C2          -0.7720     3.8520    36.5750 ca         1 NQ6      -0.240000
      6 C3           0.2070     3.2770    35.7930 ca         1 NQ6      -0.051000
      7 C11         -5.4150     8.2740    36.4640 c          1 NQ6       0.729000
      8 C7          -4.0150     5.6370    36.4340 c          1 NQ6       0.628100
      9 C8          -4.7660     6.1200    37.6580 c3         1 NQ6      -0.108400
     10 N1          -2.7720     5.1410    36.7520 ns         1 NQ6      -0.337900
     11 N15         -7.0710     6.4550    36.8420 n8         1 NQ6      -0.991200
     12 N6          -1.8830     4.6780    34.6270 nb         1 NQ6      -0.668000
     13 O12         -6.2770     8.8020    35.7350 o          1 NQ6      -0.725000
     14 O14         -4.2220     8.6140    36.5840 o          1 NQ6      -0.725000
     15 O9          -4.4640     5.6520    35.3100 o          1 NQ6      -0.491100
     16 H1           0.8770     2.9640    33.7590 ha         1 NQ6       0.109000
     17 H2          -1.0330     4.2340    32.8160 h4         1 NQ6       0.012100
     18 H3          -6.1030     7.5900    38.3450 h1         1 NQ6      -0.005300
     19 H4          -0.7450     3.7640    37.6540 ha         1 NQ6       0.111000
     20 H5           1.0200     2.7350    36.2580 ha         1 NQ6       0.100000
     21 H6          -5.1730     5.2390    38.1670 hc         1 NQ6       0.031200
     22 H7          -4.0580     6.5640    38.3610 hc         1 NQ6       0.031200
     23 H8          -2.5510     5.1280    37.7360 hn         1 NQ6       0.138000
     24 H9          -7.6400     6.1020    37.6010 hn         1 NQ6       0.383500
     25 H10         -7.6220     7.1580    36.3670 hn         1 NQ6       0.383500
@<TRIPOS>BOND
     1     1     2 ar  
     2     1     6 ar  
     3     1    16 1   
     4     2    12 ar  
     5     2    17 1   
     6     3     7 1   
     7     3     9 1   
     8     3    11 1   
     9     3    18 1   
    10     4     5 ar  
    11     4    10 1   
    12     4    12 ar  
    13     5     6 ar  
    14     5    19 1   
    15     6    20 1   
    16     7    13 1   
    17     7    14 1   
    18     8     9 1   
    19     8    10 1   
    20     8    15 2   
    21     9    21 1   
    22     9    22 1   
    23    10    23 1   
    24    11    24 1   
    25    11    25 1   
@<TRIPOS>SUBSTRUCTURE
     1 NQ6         1 TEMP              0 ****  ****    0 ROOT
