@<TRIPOS>MOLECULE
NQ6
   25    25     1     0     0
SMALL
No Charge or Current Charge


@<TRIPOS>ATOM
      1 C4           0.0420     3.6110    34.3300 ca         1 NQ6      -0.235000
      2 C5          -1.2470     3.9250    33.8660 ca         1 NQ6       0.375900
      3 C10         -5.7520     7.0870    37.2960 c3         1 NQ6       0.029500
      4 C1          -1.9380     4.5350    35.9830 ca         1 NQ6       0.515900
      5 C2          -0.6710     4.2700    36.5250 ca         1 NQ6      -0.240000
      6 C3           0.3460     3.7880    35.6880 ca         1 NQ6      -0.051000
      7 C11         -4.7050     8.1570    36.7380 c          1 NQ6       0.729000
      8 C7          -4.3270     5.0160    36.6640 c          1 NQ6       0.628100
      9 C8          -5.0860     5.7640    37.7790 c3         1 NQ6      -0.108400
     10 N1          -2.9530     5.0690    36.7870 ns         1 NQ6      -0.337900
     11 N15         -6.9550     6.7860    36.4420 n8         1 NQ6      -0.991200
     12 N6          -2.2250     4.3890    34.6730 nb         1 NQ6      -0.668000
     13 O12         -5.0950     8.9770    35.9140 o          1 NQ6      -0.725000
     14 O14         -3.5440     8.1110    37.1240 o          1 NQ6      -0.725000
     15 O9          -4.9050     4.3620    35.8040 o          1 NQ6      -0.491100
     16 H1           0.7940     3.2420    33.6380 ha         1 NQ6       0.109000
     17 H2          -1.5030     3.8040    32.8140 h4         1 NQ6       0.012100
     18 H3          -6.1700     7.5600    38.1940 h1         1 NQ6      -0.005300
     19 H4          -0.4830     4.4320    37.5830 ha         1 NQ6       0.111000
     20 H5           1.3370     3.5630    36.0770 ha         1 NQ6       0.100000
     21 H6          -5.8670     5.1050    38.1770 hc         1 NQ6       0.031200
     22 H7          -4.3930     6.0180    38.5910 hc         1 NQ6       0.031200
     23 H8          -2.6140     5.5880    37.5860 hn         1 NQ6       0.138000
     24 H9          -7.6710     6.3170    37.0090 hn         1 NQ6       0.383500
     25 H10         -7.3950     7.6750    36.1710 hn         1 NQ6       0.383500
@<TRIPOS>BOND
     1     1     2 ar  
     2     1     6 ar  
     3     1    16 1   
     4     2    12 ar  
     5     2    17 1   
     6     3     7 1   
     7     3     9 1   
     8     3    11 1   
     9     3    18 1   
    10     4     5 ar  
    11     4    10 1   
    12     4    12 ar  
    13     5     6 ar  
    14     5    19 1   
    15     6    20 1   
    16     7    13 1   
    17     7    14 1   
    18     8     9 1   
    19     8    10 1   
    20     8    15 2   
    21     9    21 1   
    22     9    22 1   
    23    10    23 1   
    24    11    24 1   
    25    11    25 1   
@<TRIPOS>SUBSTRUCTURE
     1 NQ6         1 TEMP              0 ****  ****    0 ROOT
