@<TRIPOS>MOLECULE
NQ7
   31    33     1     0     0
SMALL
bcc


@<TRIPOS>ATOM
      1 C10         -2.3300     1.3330    -0.4310 ca         1 NQ7      -0.083000
      2 C17          2.5230     1.5210    -0.0740 c          1 NQ7       0.684500
      3 C01          1.3340    -0.0220     2.2320 c3         1 NQ7      -0.093100
      4 C02          0.4710     0.5210     1.0980 c3         1 NQ7       0.027500
      5 C03         -0.7590    -0.2990     0.8590 cc         1 NQ7      -0.145400
      6 C04         -0.9770    -1.6010     1.2100 cd         1 NQ7      -0.093100
      7 N05         -2.2090    -2.0040     0.7790 na         1 NQ7      -0.174400
      8 C06         -2.8250    -0.9720     0.1350 ca         1 NQ7      -0.046200
      9 C07         -4.0800    -0.8970    -0.4670 ca         1 NQ7      -0.146000
     10 C08         -4.4380     0.3040    -1.0480 ca         1 NQ7      -0.109000
     11 C09         -3.5720     1.4110    -1.0300 ca         1 NQ7      -0.156000
     12 C11         -1.9380     0.1280     0.1630 ca         1 NQ7      -0.095800
     13 C12          1.2560     0.6830    -0.2050 c5         1 NQ7      -0.001900
     14 O13          1.7750    -0.5710    -0.6550 os         1 NQ7      -0.419400
     15 C14          3.0930    -0.4240    -0.7280 c2         1 NQ7       0.857500
     16 N15          3.7910    -1.4670    -1.1170 nv         1 NQ7      -0.916800
     17 N16          3.5910     0.7480    -0.4100 ne         1 NQ7      -0.785100
     18 H1          -1.6750     2.1970    -0.4200 ha         1 NQ7       0.134000
     19 H2           2.1840     0.6290     2.4400 hc         1 NQ7       0.041700
     20 H3           0.7490    -0.0910     3.1480 hc         1 NQ7       0.041700
     21 H4           1.7210    -1.0180     2.0160 hc         1 NQ7       0.041700
     22 H5           0.1600     1.5380     1.3640 hc         1 NQ7       0.081700
     23 H6          -0.3420    -2.2880     1.7470 h4         1 NQ7       0.162000
     24 H7          -2.6000    -2.9180     0.9320 hn         1 NQ7       0.298700
     25 H8          -4.7490    -1.7480    -0.4800 ha         1 NQ7       0.130000
     26 H9          -5.4050     0.3950    -1.5260 ha         1 NQ7       0.128000
     27 H10         -3.8880     2.3360    -1.4940 ha         1 NQ7       0.130000
     28 H11          0.6130     1.0890    -0.9920 h1         1 NQ7       0.105700
     29 H12          4.7930    -1.4050    -1.1730 hn         1 NQ7       0.463800
     30 H13          3.3510    -2.3470    -1.3290 hn         1 NQ7       0.463800
     31 O18          2.5440     2.6800     0.2830 o          1 NQ7      -0.526100
@<TRIPOS>BOND
     1     1    11 ar  
     2     1    12 ar  
     3     1    18 1   
     4     2    13 1   
     5     2    17 1   
     6     2    31 2   
     7     3     4 1   
     8     3    19 1   
     9     3    20 1   
    10     3    21 1   
    11     4     5 1   
    12     4    13 1   
    13     4    22 1   
    14     5     6 2   
    15     5    12 1   
    16     6     7 1   
    17     6    23 1   
    18     7     8 1   
    19     7    24 1   
    20     8     9 ar  
    21     8    12 ar  
    22     9    10 ar  
    23     9    25 1   
    24    10    11 ar  
    25    10    26 1   
    26    11    27 1   
    27    13    14 1   
    28    13    28 1   
    29    14    15 1   
    30    15    16 1   
    31    15    17 2   
    32    16    29 1   
    33    16    30 1   
@<TRIPOS>SUBSTRUCTURE
     1 NQ7         1 TEMP              0 ****  ****    0 ROOT
