@<TRIPOS>MOLECULE
NQ7
   31    33     1     0     0
SMALL
No Charge or Current Charge


@<TRIPOS>ATOM
      1 C10         -2.2490     1.2900    -0.4560 ca         1 NQ7      -0.065000
      2 C17          2.4630     1.5720    -0.1790 c          1 NQ7       0.684500
      3 C01          1.3580    -0.1400     2.2130 c3         1 NQ7      -0.093100
      4 C02          0.4820     0.4250     1.0660 c3         1 NQ7       0.027500
      5 C03         -0.7900    -0.3730     0.8700 cc         1 NQ7      -0.145400
      6 C04         -1.0680    -1.6740     1.2920 cd         1 NQ7      -0.143100
      7 N05         -2.3680    -2.0460     0.8720 na         1 NQ7      -0.224700
      8 C06         -2.8740    -0.9560     0.1910 ca         1 NQ7      -0.046200
      9 C07         -4.1330    -0.8320    -0.4130 ca         1 NQ7      -0.128000
     10 C08         -4.4470     0.3850    -1.0540 ca         1 NQ7      -0.091000
     11 C09         -3.5080     1.4430    -1.0740 ca         1 NQ7      -0.138000
     12 C11         -1.9660     0.0640     0.1670 ca         1 NQ7      -0.095800
     13 C12          1.2560     0.5930    -0.2730 c5         1 NQ7       0.021300
     14 O13          1.8300    -0.6690    -0.7160 os         1 NQ7      -0.442600
     15 C14          3.1000    -0.2990    -0.9460 c2         1 NQ7       0.857500
     16 N15          3.9340    -1.2850    -1.2520 nv         1 NQ7      -1.027200
     17 N16          3.5390     0.8430    -0.6390 ne         1 NQ7      -0.785100
     18 H1          -1.5250     2.1010    -0.4620 ha         1 NQ7       0.116000
     19 H2           2.2170     0.5120     2.4100 hc         1 NQ7       0.041700
     20 H3           0.7760    -0.2110     3.1400 hc         1 NQ7       0.041700
     21 H4           1.7360    -1.1390     1.9690 hc         1 NQ7       0.041700
     22 H5           0.1740     1.4280     1.3890 hc         1 NQ7       0.081700
     23 H6          -0.4360    -2.3610     1.8480 h4         1 NQ7       0.212000
     24 H7          -2.8330    -2.9340     1.0350 hn         1 NQ7       0.349000
     25 H8          -4.8490    -1.6500    -0.3890 ha         1 NQ7       0.112000
     26 H9          -5.4160     0.5110    -1.5320 ha         1 NQ7       0.110000
     27 H10         -3.7590     2.3800    -1.5660 ha         1 NQ7       0.112000
     28 H11          0.5880     0.9770    -1.0550 h1         1 NQ7       0.105700
     29 H12          4.8600    -1.0650    -0.9160 hn         1 NQ7       0.519000
     30 H13          3.5790    -2.1760    -0.9350 hn         1 NQ7       0.519000
     31 O18          2.4910     2.7240     0.2220 o          1 NQ7      -0.526100
@<TRIPOS>BOND
     1     1    11 ar  
     2     1    12 ar  
     3     1    18 1   
     4     2    13 1   
     5     2    17 1   
     6     2    31 2   
     7     3     4 1   
     8     3    19 1   
     9     3    20 1   
    10     3    21 1   
    11     4     5 1   
    12     4    13 1   
    13     4    22 1   
    14     5     6 2   
    15     5    12 1   
    16     6     7 1   
    17     6    23 1   
    18     7     8 1   
    19     7    24 1   
    20     8     9 ar  
    21     8    12 ar  
    22     9    10 ar  
    23     9    25 1   
    24    10    11 ar  
    25    10    26 1   
    26    11    27 1   
    27    13    14 1   
    28    13    28 1   
    29    14    15 1   
    30    15    16 1   
    31    15    17 2   
    32    16    29 1   
    33    16    30 1   
@<TRIPOS>SUBSTRUCTURE
     1 NQ7         1 TEMP              0 ****  ****    0 ROOT
