@<TRIPOS>MOLECULE
NQ8
   50    53     1     0     0
SMALL
abcg2


@<TRIPOS>ATOM
      1 C1         -23.8640    32.1320    16.5470 c6         1 NQ8      -0.069400
      2 C2         -23.5960    30.7600    17.1480 c6         1 NQ8      -0.070400
      3 C3         -22.8420    29.8510    16.1830 c6         1 NQ8      -0.044700
      4 C4         -22.6930    28.4400    16.7300 c5         1 NQ8      -0.062700
      5 C5         -22.0780    28.2300    18.1130 c5         1 NQ8      -0.070400
      6 C6         -21.6470    26.7420    18.1100 c5         1 NQ8      -0.077400
      7 C7         -21.8470    26.2400    16.6620 c5         1 NQ8      -0.071400
      8 C8         -21.8740    27.5170    15.8170 c5         1 NQ8      -0.050000
      9 C9         -20.4320    28.0030    15.6230 c3         1 NQ8      -0.078100
     10 C10        -22.5850    27.4180    14.4740 c6         1 NQ8      -0.060400
     11 C          -24.6080    31.9930    15.2270 c6         1 NQ8      -0.047700
     12 C11        -22.8200    28.8040    13.8660 c6         1 NQ8      -0.070400
     13 C12        -23.5520    29.7650    14.8130 c6         1 NQ8      -0.046700
     14 C13        -23.8240    31.1610    14.1890 c6         1 NQ8      -0.033000
     15 C14        -22.5090    31.8350    13.7780 c3         1 NQ8      -0.082100
     16 C15        -24.7270    31.0100    12.9550 c6         1 NQ8      -0.062400
     17 C16        -25.1960    32.3460    12.3720 c6         1 NQ8      -0.185400
     18 C17        -25.8370    33.2270    13.4100 c          1 NQ8       0.577100
     19 C18        -25.0560    33.3570    14.6890 c6         1 NQ8      -0.182400
     20 H1         -22.9230    32.6710    16.3950 hc         1 NQ8       0.042200
     21 H2         -24.4560    32.7360    17.2400 hc         1 NQ8       0.042200
     22 H3         -24.5510    30.2900    17.4140 hc         1 NQ8       0.041200
     23 H4         -23.0340    30.8610    18.0800 hc         1 NQ8       0.041200
     24 H5         -21.8390    30.2740    16.0450 hc         1 NQ8       0.051700
     25 H6         -23.7070    28.0090    16.7670 hc         1 NQ8       0.044700
     26 H7         -21.2200    28.8900    18.2630 hc         1 NQ8       0.041200
     27 H8         -22.7840    28.4510    18.9160 hc         1 NQ8       0.041200
     28 H10        -22.2390    26.1540    18.8130 hc         1 NQ8       0.039700
     29 H9         -20.6070    26.6360    18.4220 hc         1 NQ8       0.039700
     30 H12        -22.8040    25.7160    16.5710 hc         1 NQ8       0.042200
     31 H11        -21.0710    25.5370    16.3490 hc         1 NQ8       0.042200
     32 H13        -19.8910    28.0840    16.5670 hc         1 NQ8       0.032033
     33 H15        -19.8850    27.2920    14.9990 hc         1 NQ8       0.032033
     34 H14        -20.3710    28.9750    15.1330 hc         1 NQ8       0.032033
     35 H17        -23.5520    26.9220    14.6180 hc         1 NQ8       0.040200
     36 H16        -22.0180    26.8000    13.7710 hc         1 NQ8       0.040200
     37 H          -25.5250    31.4260    15.4470 hc         1 NQ8       0.049700
     38 H18        -21.8620    29.2380    13.5670 hc         1 NQ8       0.039700
     39 H19        -23.3900    28.6820    12.9430 hc         1 NQ8       0.039700
     40 H20        -24.5440    29.3260    15.0100 hc         1 NQ8       0.043700
     41 H21        -21.7540    31.7880    14.5620 hc         1 NQ8       0.033033
     42 H22        -22.0880    31.3480    12.8970 hc         1 NQ8       0.033033
     43 H23        -22.6320    32.8880    13.5240 hc         1 NQ8       0.033033
     44 H24        -25.6030    30.4110    13.2270 hc         1 NQ8       0.046200
     45 H25        -24.2120    30.4630    12.1650 hc         1 NQ8       0.046200
     46 H27        -24.3340    32.8930    11.9720 hc         1 NQ8       0.065700
     47 H26        -25.8850    32.1890    11.5410 hc         1 NQ8       0.065700
     48 H28        -24.1850    33.9900    14.4860 hc         1 NQ8       0.065700
     49 H29        -25.6580    33.8800    15.4350 hc         1 NQ8       0.065700
     50 O          -26.8920    33.7950    13.2270 o          1 NQ8      -0.523100
@<TRIPOS>BOND
     1     1     2 1   
     2     1    11 1   
     3     1    20 1   
     4     1    21 1   
     5     2     3 1   
     6     2    22 1   
     7     2    23 1   
     8     3     4 1   
     9     3    13 1   
    10     3    24 1   
    11     4     5 1   
    12     4     8 1   
    13     4    25 1   
    14     5     6 1   
    15     5    26 1   
    16     5    27 1   
    17     6     7 1   
    18     6    28 1   
    19     6    29 1   
    20     7     8 1   
    21     7    30 1   
    22     7    31 1   
    23     8     9 1   
    24     8    10 1   
    25     9    32 1   
    26     9    33 1   
    27     9    34 1   
    28    10    12 1   
    29    10    35 1   
    30    10    36 1   
    31    11    14 1   
    32    11    19 1   
    33    11    37 1   
    34    12    13 1   
    35    12    38 1   
    36    12    39 1   
    37    13    14 1   
    38    13    40 1   
    39    14    15 1   
    40    14    16 1   
    41    15    41 1   
    42    15    42 1   
    43    15    43 1   
    44    16    17 1   
    45    16    44 1   
    46    16    45 1   
    47    17    18 1   
    48    17    46 1   
    49    17    47 1   
    50    18    19 1   
    51    18    50 2   
    52    19    48 1   
    53    19    49 1   
@<TRIPOS>SUBSTRUCTURE
     1 NQ8         1 TEMP              0 ****  ****    0 ROOT
