@<TRIPOS>MOLECULE
NQ8
   50    53     1     0     0
SMALL
No Charge or Current Charge


@<TRIPOS>ATOM
      1 C1         -23.9490    32.1360    16.5860 c6         1 NQ8      -0.069400
      2 C2         -23.6550    30.7390    17.1790 c6         1 NQ8      -0.070400
      3 C3         -22.8460    29.8460    16.2000 c6         1 NQ8      -0.044700
      4 C4         -22.6650    28.4130    16.7770 c5         1 NQ8      -0.062700
      5 C5         -21.9340    28.2450    18.1380 c5         1 NQ8      -0.070400
      6 C6         -21.5910    26.7150    18.1650 c5         1 NQ8      -0.077400
      7 C7         -21.9230    26.1910    16.7260 c5         1 NQ8      -0.071400
      8 C8         -21.8440    27.4740    15.8460 c5         1 NQ8      -0.050000
      9 C9         -20.3560    27.8970    15.5810 c3         1 NQ8      -0.078100
     10 C10        -22.5810    27.3650    14.4810 c6         1 NQ8      -0.060400
     11 C          -24.6670    32.0150    15.2160 c6         1 NQ8      -0.047700
     12 C11        -22.8040    28.7650    13.8370 c6         1 NQ8      -0.070400
     13 C12        -23.5570    29.7570    14.7960 c6         1 NQ8      -0.046700
     14 C13        -23.8200    31.1910    14.1740 c6         1 NQ8      -0.033000
     15 C14        -22.4680    31.9090    13.8030 c3         1 NQ8      -0.082100
     16 C15        -24.7060    31.0770    12.8630 c6         1 NQ8      -0.062400
     17 C16        -25.2540    32.4300    12.2710 c6         1 NQ8      -0.185400
     18 C17        -25.8730    33.3290    13.3510 c          1 NQ8       0.577100
     19 C18        -25.1270    33.4100    14.6930 c6         1 NQ8      -0.182400
     20 H1         -23.0170    32.7090    16.4870 hc         1 NQ8       0.042200
     21 H2         -24.5790    32.6980    17.2890 hc         1 NQ8       0.042200
     22 H3         -24.6010    30.2440    17.4340 hc         1 NQ8       0.041200
     23 H4         -23.1050    30.8590    18.1230 hc         1 NQ8       0.041200
     24 H5         -21.8510    30.2910    16.0830 hc         1 NQ8       0.051700
     25 H6         -23.6910    28.0330    16.8820 hc         1 NQ8       0.044700
     26 H7         -21.0310    28.8630    18.1950 hc         1 NQ8       0.041200
     27 H8         -22.5690    28.5350    18.9820 hc         1 NQ8       0.041200
     28 H10        -22.1770    26.1820    18.9230 hc         1 NQ8       0.039700
     29 H9         -20.5360    26.5570    18.4170 hc         1 NQ8       0.039700
     30 H12        -22.9260    25.7460    16.7000 hc         1 NQ8       0.042200
     31 H11        -21.2270    25.4110    16.3970 hc         1 NQ8       0.042200
     32 H13        -19.7480    27.9090    16.4920 hc         1 NQ8       0.032033
     33 H15        -19.8710    27.1940    14.8940 hc         1 NQ8       0.032033
     34 H14        -20.2740    28.8930    15.1350 hc         1 NQ8       0.032033
     35 H17        -23.5570    26.8820    14.6240 hc         1 NQ8       0.040200
     36 H16        -22.0200    26.7170    13.7930 hc         1 NQ8       0.040200
     37 H          -25.5920    31.4490    15.4020 hc         1 NQ8       0.049700
     38 H18        -21.8390    29.1800    13.5240 hc         1 NQ8       0.039700
     39 H19        -23.3800    28.6200    12.9140 hc         1 NQ8       0.039700
     40 H20        -24.5440    29.3070    14.9750 hc         1 NQ8       0.043700
     41 H21        -21.7870    32.0010    14.6540 hc         1 NQ8       0.033033
     42 H22        -21.9290    31.3690    13.0170 hc         1 NQ8       0.033033
     43 H23        -22.6220    32.9210    13.4170 hc         1 NQ8       0.033033
     44 H24        -25.5680    30.4280    13.0730 hc         1 NQ8       0.046200
     45 H25        -24.1430    30.5670    12.0700 hc         1 NQ8       0.046200
     46 H27        -24.3760    32.9670    11.8910 hc         1 NQ8       0.065700
     47 H26        -25.9600    32.2730    11.4450 hc         1 NQ8       0.065700
     48 H28        -24.2200    33.9990    14.5160 hc         1 NQ8       0.065700
     49 H29        -25.7500    33.9370    15.4280 hc         1 NQ8       0.065700
     50 O          -26.9930    33.8050    13.2160 o          1 NQ8      -0.523100
@<TRIPOS>BOND
     1     1     2 1   
     2     1    11 1   
     3     1    20 1   
     4     1    21 1   
     5     2     3 1   
     6     2    22 1   
     7     2    23 1   
     8     3     4 1   
     9     3    13 1   
    10     3    24 1   
    11     4     5 1   
    12     4     8 1   
    13     4    25 1   
    14     5     6 1   
    15     5    26 1   
    16     5    27 1   
    17     6     7 1   
    18     6    28 1   
    19     6    29 1   
    20     7     8 1   
    21     7    30 1   
    22     7    31 1   
    23     8     9 1   
    24     8    10 1   
    25     9    32 1   
    26     9    33 1   
    27     9    34 1   
    28    10    12 1   
    29    10    35 1   
    30    10    36 1   
    31    11    14 1   
    32    11    19 1   
    33    11    37 1   
    34    12    13 1   
    35    12    38 1   
    36    12    39 1   
    37    13    14 1   
    38    13    40 1   
    39    14    15 1   
    40    14    16 1   
    41    15    41 1   
    42    15    42 1   
    43    15    43 1   
    44    16    17 1   
    45    16    44 1   
    46    16    45 1   
    47    17    18 1   
    48    17    46 1   
    49    17    47 1   
    50    18    19 1   
    51    18    50 2   
    52    19    48 1   
    53    19    49 1   
@<TRIPOS>SUBSTRUCTURE
     1 NQ8         1 TEMP              0 ****  ****    0 ROOT
