@<TRIPOS>MOLECULE
NQ9
   58    60     1     0     0
SMALL
abcg2


@<TRIPOS>ATOM
      1 O3         -20.2280    25.5740     3.5010 o          1 NQ9      -0.570100
      2 C3         -14.4630    18.9690    -0.6570 c6         1 NQ9      -0.075400
      3 C4         -15.3750    19.4950     0.4600 c6         1 NQ9       0.124000
      4 C5         -17.3100    19.9830    -0.9500 ca         1 NQ9       0.152100
      5 C6         -18.6000    19.5560    -1.2690 ca         1 NQ9      -0.165500
      6 C7         -19.3220    20.1670    -2.2770 ca         1 NQ9      -0.069500
      7 C2         -14.7440    17.5060    -0.9820 c6         1 NQ9      -0.089400
      8 N1         -14.8100    15.2240    -0.1180 n8         1 NQ9      -0.985200
      9 C1         -14.5660    16.6140     0.2400 c6         1 NQ9       0.154500
     10 O1         -16.7420    19.3420     0.0910 os         1 NQ9      -0.355100
     11 C8         -18.7520    21.2160    -2.9850 ca         1 NQ9       0.077000
     12 CL1        -19.6530    21.9890    -4.2490 cl         1 NQ9      -0.204000
     13 C9         -17.4710    21.6430    -2.6900 ca         1 NQ9      -0.069500
     14 C10        -16.7460    21.0300    -1.6750 ca         1 NQ9      -0.165500
     15 O2         -13.9260    21.3860     0.4650 o          1 NQ9      -0.607100
     16 N2         -15.8430    21.6880     1.6030 n          1 NQ9      -0.399800
     17 C12        -17.1210    21.3100     2.1950 c6         1 NQ9       0.096500
     18 C13        -18.2520    22.1740     1.6530 c6         1 NQ9      -0.092900
     19 C14        -17.9660    23.6600     1.8480 c6         1 NQ9      -0.086700
     20 C15        -19.0190    24.5370     1.1740 c3         1 NQ9       0.109000
     21 N3         -20.3680    24.2970     1.6410 ns         1 NQ9      -0.509900
     22 C16        -20.8600    24.8410     2.7630 c          1 NQ9       0.594100
     23 C17        -22.3260    24.5120     3.0000 c3         1 NQ9       0.021600
     24 C18        -16.5800    24.0020     1.3080 c6         1 NQ9      -0.092900
     25 C19        -15.5140    23.0810     1.8830 c6         1 NQ9       0.096500
     26 C20        -15.1750    18.6010     1.6940 c6         1 NQ9      -0.075400
     27 C21        -15.4290    17.1270     1.3910 c6         1 NQ9      -0.089400
     28 H1         -13.4290    19.0620    -0.3220 hc         1 NQ9       0.062450
     29 H2         -14.5380    19.5730    -1.5620 hc         1 NQ9       0.062450
     30 H3         -19.0420    18.7410    -0.7100 ha         1 NQ9       0.132500
     31 H4         -20.3220    19.8250    -2.5070 ha         1 NQ9       0.130000
     32 H5         -15.7560    17.3810    -1.3830 hc         1 NQ9       0.050200
     33 H6         -14.0600    17.1850    -1.7700 hc         1 NQ9       0.050200
     34 H7         -14.6710    14.6380     0.6970 hn         1 NQ9       0.391500
     35 H8         -15.7890    15.1130    -0.3650 hn         1 NQ9       0.391500
     36 H10        -13.5160    16.6880     0.5500 h1         1 NQ9       0.059700
     37 H11        -17.0220    22.4580    -3.2420 ha         1 NQ9       0.130000
     38 H12        -15.7510    21.4010    -1.4800 ha         1 NQ9       0.132500
     39 H13        -17.3430    20.2620     2.0450 h1         1 NQ9       0.060950
     40 H14        -17.0370    21.4610     3.2770 h1         1 NQ9       0.060950
     41 H15        -19.1760    21.8900     2.1630 hc         1 NQ9       0.051200
     42 H16        -18.3960    21.9630     0.5900 hc         1 NQ9       0.051200
     43 H17        -17.9730    23.8760     2.9230 hc         1 NQ9       0.069700
     44 H18        -19.0110    24.3530     0.0980 h1         1 NQ9       0.057200
     45 H19        -18.7730    25.5900     1.3190 h1         1 NQ9       0.057200
     46 H20        -20.9380    23.6520     1.1180 hn         1 NQ9       0.315500
     47 H21        -22.9460    25.2780     2.5330 h1         1 NQ9       0.077200
     48 H22        -22.6060    23.5460     2.5860 h1         1 NQ9       0.077200
     49 CL2        -22.6970    24.4970     4.7400 cl         1 NQ9      -0.225000
     50 H24        -16.3240    25.0370     1.5480 hc         1 NQ9       0.051200
     51 H25        -16.5730    23.9160     0.2150 hc         1 NQ9       0.051200
     52 H26        -14.5380    23.3150     1.4730 h1         1 NQ9       0.060950
     53 H27        -15.4540    23.2100     2.9700 h1         1 NQ9       0.060950
     54 H28        -14.1410    18.7350     2.0260 hc         1 NQ9       0.062450
     55 H29        -15.8050    18.9240     2.5240 hc         1 NQ9       0.062450
     56 H30        -16.4840    16.9680     1.1490 hc         1 NQ9       0.050200
     57 H31        -15.2260    16.5430     2.2930 hc         1 NQ9       0.050200
     58 C11        -15.0070    20.9500     0.8430 c          1 NQ9       0.583100
@<TRIPOS>BOND
     1     1    22 2   
     2     2     3 1   
     3     2     7 1   
     4     2    28 1   
     5     2    29 1   
     6     3    10 1   
     7     3    26 1   
     8     3    58 1   
     9     4     5 ar  
    10     4    10 1   
    11     4    14 ar  
    12     5     6 ar  
    13     5    30 1   
    14     6    11 ar  
    15     6    31 1   
    16     7     9 1   
    17     7    32 1   
    18     7    33 1   
    19     8     9 1   
    20     8    34 1   
    21     8    35 1   
    22     9    27 1   
    23     9    36 1   
    24    11    12 1   
    25    11    13 ar  
    26    13    14 ar  
    27    13    37 1   
    28    14    38 1   
    29    15    58 2   
    30    16    17 1   
    31    16    25 1   
    32    16    58 1   
    33    17    18 1   
    34    17    39 1   
    35    17    40 1   
    36    18    19 1   
    37    18    41 1   
    38    18    42 1   
    39    19    20 1   
    40    19    24 1   
    41    19    43 1   
    42    20    21 1   
    43    20    44 1   
    44    20    45 1   
    45    21    22 1   
    46    21    46 1   
    47    22    23 1   
    48    23    47 1   
    49    23    48 1   
    50    23    49 1   
    51    24    25 1   
    52    24    50 1   
    53    24    51 1   
    54    25    52 1   
    55    25    53 1   
    56    26    27 1   
    57    26    54 1   
    58    26    55 1   
    59    27    56 1   
    60    27    57 1   
@<TRIPOS>SUBSTRUCTURE
     1 NQ9         1 TEMP              0 ****  ****    0 ROOT
