@<TRIPOS>MOLECULE
NQ9
   58    60     1     0     0
SMALL
No Charge or Current Charge


@<TRIPOS>ATOM
      1 O3         -20.1830    25.3210     3.8610 o          1 NQ9      -0.570100
      2 C3         -14.2460    18.8630    -0.6750 c6         1 NQ9      -0.075400
      3 C4         -15.4240    19.3880     0.2220 c6         1 NQ9       0.124000
      4 C5         -17.4280    19.8170    -1.2480 ca         1 NQ9       0.152100
      5 C6         -18.8290    19.7510    -1.1640 ca         1 NQ9      -0.165500
      6 C7         -19.6360    20.5330    -2.0080 ca         1 NQ9      -0.069500
      7 C2         -14.2710    17.3260    -0.8790 c6         1 NQ9      -0.089400
      8 N1         -14.2730    15.1290     0.2740 n8         1 NQ9      -0.985200
      9 C1         -14.2080    16.5880     0.4770 c6         1 NQ9       0.154500
     10 O1         -16.7140    19.0260    -0.3660 os         1 NQ9      -0.355100
     11 C8         -19.0400    21.3790    -2.9560 ca         1 NQ9       0.077000
     12 Cl1        -20.0440    22.3640    -4.0110 cl         1 NQ9      -0.204000
     13 C9         -17.6410    21.4330    -3.0680 ca         1 NQ9      -0.069500
     14 C10        -16.8340    20.6500    -2.2210 ca         1 NQ9      -0.165500
     15 O2         -14.6620    21.6660    -0.2840 o          1 NQ9      -0.607100
     16 N2         -15.9400    21.5510     1.5990 n          1 NQ9      -0.399800
     17 C12        -17.3480    21.2250     1.9650 c6         1 NQ9       0.096500
     18 C13        -18.3350    22.2920     1.4320 c6         1 NQ9      -0.092900
     19 C14        -17.9490    23.7160     1.9140 c6         1 NQ9      -0.086700
     20 C15        -18.8960    24.8130     1.3450 c3         1 NQ9       0.109000
     21 N3         -20.3050    24.6090     1.7000 ns         1 NQ9      -0.509900
     22 C16        -20.8500    24.8620     2.9420 c          1 NQ9       0.594100
     23 C17        -22.3460    24.5260     3.0640 c3         1 NQ9       0.021600
     24 C18        -16.4720    24.0070     1.5440 c6         1 NQ9      -0.092900
     25 C19        -15.5320    22.8990     2.0770 c6         1 NQ9       0.096500
     26 C20        -15.3350    18.6020     1.5820 c6         1 NQ9      -0.075400
     27 C21        -15.3520    17.0580     1.4030 c6         1 NQ9      -0.089400
     28 H1         -13.2880    19.1460    -0.2140 hc         1 NQ9       0.062450
     29 H2         -14.2470    19.3480    -1.6570 hc         1 NQ9       0.062450
     30 H3         -19.2910    19.0990    -0.4270 ha         1 NQ9       0.132500
     31 H4         -20.7200    20.4860    -1.9280 ha         1 NQ9       0.130000
     32 H5         -15.1790    17.0390    -1.4280 hc         1 NQ9       0.050200
     33 H6         -13.4200    17.0260    -1.5060 hc         1 NQ9       0.050200
     34 H7         -14.2930    14.6680     1.1910 hn         1 NQ9       0.391500
     35 H8         -15.1870    14.8960    -0.1310 hn         1 NQ9       0.391500
     36 H10        -13.2440    16.8150     0.9600 h1         1 NQ9       0.059700
     37 H11        -17.1820    22.0790    -3.8120 ha         1 NQ9       0.130000
     38 H12        -15.7610    20.7010    -2.3460 ha         1 NQ9       0.132500
     39 H13        -17.6530    20.2490     1.5710 h1         1 NQ9       0.060950
     40 H14        -17.4270    21.1690     3.0600 h1         1 NQ9       0.060950
     41 H15        -19.3520    22.0360     1.7600 hc         1 NQ9       0.051200
     42 H16        -18.3430    22.2620     0.3340 hc         1 NQ9       0.051200
     43 H17        -18.0440    23.7530     3.0090 hc         1 NQ9       0.069700
     44 H18        -18.8110    24.8260     0.2500 h1         1 NQ9       0.057200
     45 H19        -18.5750    25.7950     1.7180 h1         1 NQ9       0.057200
     46 H20        -20.9290    24.2370     0.9920 hn         1 NQ9       0.315500
     47 H21        -22.9020    25.1360     2.3440 h1         1 NQ9       0.077200
     48 H22        -22.4870    23.4670     2.8200 h1         1 NQ9       0.077200
     49 Cl2        -23.0600    24.8190     4.7220 cl         1 NQ9      -0.225000
     50 H24        -16.1630    24.9780     1.9540 hc         1 NQ9       0.051200
     51 H25        -16.3660    24.0780     0.4530 hc         1 NQ9       0.051200
     52 H26        -14.4960    23.1150     1.7770 h1         1 NQ9       0.060950
     53 H27        -15.5520    22.9050     3.1760 h1         1 NQ9       0.060950
     54 H28        -14.4130    18.8920     2.1060 hc         1 NQ9       0.062450
     55 H29        -16.1520    18.8690     2.2600 hc         1 NQ9       0.062450
     56 H30        -16.3240    16.7440     0.9960 hc         1 NQ9       0.050200
     57 H31        -15.2580    16.5780     2.3860 hc         1 NQ9       0.050200
     58 C11        -15.2940    20.9490     0.4880 c          1 NQ9       0.583100
@<TRIPOS>BOND
     1     1    22 2   
     2     2     3 1   
     3     2     7 1   
     4     2    28 1   
     5     2    29 1   
     6     3    10 1   
     7     3    26 1   
     8     3    58 1   
     9     4     5 ar  
    10     4    10 1   
    11     4    14 ar  
    12     5     6 ar  
    13     5    30 1   
    14     6    11 ar  
    15     6    31 1   
    16     7     9 1   
    17     7    32 1   
    18     7    33 1   
    19     8     9 1   
    20     8    34 1   
    21     8    35 1   
    22     9    27 1   
    23     9    36 1   
    24    11    12 1   
    25    11    13 ar  
    26    13    14 ar  
    27    13    37 1   
    28    14    38 1   
    29    15    58 2   
    30    16    17 1   
    31    16    25 1   
    32    16    58 1   
    33    17    18 1   
    34    17    39 1   
    35    17    40 1   
    36    18    19 1   
    37    18    41 1   
    38    18    42 1   
    39    19    20 1   
    40    19    24 1   
    41    19    43 1   
    42    20    21 1   
    43    20    44 1   
    44    20    45 1   
    45    21    22 1   
    46    21    46 1   
    47    22    23 1   
    48    23    47 1   
    49    23    48 1   
    50    23    49 1   
    51    24    25 1   
    52    24    50 1   
    53    24    51 1   
    54    25    52 1   
    55    25    53 1   
    56    26    27 1   
    57    26    54 1   
    58    26    55 1   
    59    27    56 1   
    60    27    57 1   
@<TRIPOS>SUBSTRUCTURE
     1 NQ9         1 TEMP              0 ****  ****    0 ROOT
