@<TRIPOS>MOLECULE
NQB
   58    62     1     0     0
SMALL
No Charge or Current Charge


@<TRIPOS>ATOM
      1 C1          -6.4880     0.2250    -0.3440 c6         1 NQB       0.168300
      2 C2          -7.5970    -0.2300     0.6630 c6         1 NQB       0.155800
      3 C8          -8.2980    -2.3620    -0.4150 c3         1 NQB       0.149100
      4 C9          -2.7470    -0.0380     0.1490 ca         1 NQB      -0.119000
      5 C10         -3.9550     0.1780    -0.5370 ca         1 NQB       0.304000
      6 C11         -3.9340     0.9820    -1.6910 ca         1 NQB      -0.147000
      7 C12         -2.7300     1.5500    -2.1440 ca         1 NQB      -0.062000
      8 C14          3.1000    -0.0070    -0.1900 ca         1 NQB      -0.048000
      9 C15          4.4310    -0.0750     0.2810 ca         1 NQB      -0.151600
     10 C16          4.8160     0.7910     1.3320 ca         1 NQB      -0.076000
     11 C19          5.3910    -1.0640    -0.3490 c          1 NQB       0.615700
     12 C20          7.7170    -1.9600    -0.3160 cx         1 NQB       0.045700
     13 C21          9.1280    -1.6680     0.1330 cx         1 NQB      -0.132400
     14 C22          8.7150    -1.3860    -1.2910 cx         1 NQB      -0.132400
     15 N29          0.8370     0.9280    -0.1440 n          1 NQB      -0.266500
     16 C30         -0.2620     0.3060     0.4210 c          1 NQB       0.575600
     17 N3          -7.7110    -1.7170     0.7840 n3         1 NQB      -0.708600
     18 C4          -6.3770    -2.2790     1.1680 c6         1 NQB       0.155800
     19 C5          -5.2310    -1.8840     0.1760 c6         1 NQB       0.168300
     20 C17          3.8940     1.6920     1.8890 ca         1 NQB      -0.119000
     21 C18          2.5710     1.7550     1.4160 ca         1 NQB      -0.026300
     22 C23          1.5910     2.7450     2.0380 c3         1 NQB      -0.056800
     23 O24          5.0540    -1.8040    -1.2650 o          1 NQB      -0.590100
     24 C13          2.1760     0.8970     0.3660 ca         1 NQB       0.013600
     25 C25         -1.5360     0.5340    -0.3060 ca         1 NQB      -0.154600
     26 C26         -1.5170     1.3370    -1.4640 ca         1 NQB       0.129400
     27 N27         -0.3650     1.9450    -1.9880 nc         1 NQB      -0.605100
     28 C28          0.7530     1.7040    -1.2890 cd         1 NQB       0.495800
     29 N5          -5.1560    -0.4040    -0.0620 nh         1 NQB      -0.793400
     30 O29         -0.1810    -0.3770     1.4360 o          1 NQB      -0.528000
     31 N32          6.6730    -1.0940     0.1590 ns         1 NQB      -0.480900
     32 H11C        -6.8100    -0.0250    -1.3660 h1         1 NQB       0.045200
     33 H12C        -6.4070     1.3210    -0.2900 h1         1 NQB       0.045200
     34 H21C        -7.3570     0.2020     1.6460 h1         1 NQB       0.061700
     35 H22C        -8.5590     0.2090     0.3580 h1         1 NQB       0.061700
     36 H81C        -7.6720    -2.2090    -1.3040 h1         1 NQB       0.032033
     37 H82C        -8.4060    -3.4430    -0.2570 h1         1 NQB       0.032033
     38 H83C        -9.2940    -1.9510    -0.6240 h1         1 NQB       0.032033
     39 H9          -2.7530    -0.6430     1.0510 ha         1 NQB       0.136000
     40 H11         -4.8450     1.1640    -2.2510 ha         1 NQB       0.116000
     41 H12         -2.7380     2.1650    -3.0410 ha         1 NQB       0.131000
     42 H14          2.7750    -0.6640    -0.9940 ha         1 NQB       0.146000
     43 H16          5.8270     0.7820     1.7320 ha         1 NQB       0.115000
     44 H17          4.2140     2.3470     2.6970 ha         1 NQB       0.120000
     45 H32          6.8700    -0.4570     0.9200 hn         1 NQB       0.320500
     46 H20          7.4220    -3.0050    -0.4340 h1         1 NQB       0.087700
     47 H211         9.2930    -0.8170     0.7910 hc         1 NQB       0.077950
     48 H212         9.7850    -2.5150     0.3120 hc         1 NQB       0.077950
     49 H221         9.0940    -2.0440    -2.0690 hc         1 NQB       0.077950
     50 H222         8.5960    -0.3470    -1.5900 hc         1 NQB       0.077950
     51 H28          1.6790     2.1480    -1.6360 h5         1 NQB       0.054800
     52 H41C        -6.0990    -1.9140     2.1680 h1         1 NQB       0.061700
     53 H42C        -6.4250    -3.3750     1.2400 h1         1 NQB       0.061700
     54 H51C        -4.2840    -2.2620     0.5850 h1         1 NQB       0.045200
     55 H52C        -5.3930    -2.4020    -0.7800 h1         1 NQB       0.045200
     56 H231         1.1390     3.3890     1.2740 hc         1 NQB       0.054033
     57 H232         0.7820     2.2220     2.5600 hc         1 NQB       0.054033
     58 H233         2.0820     3.4010     2.7670 hc         1 NQB       0.054033
@<TRIPOS>BOND
     1     1     2 1   
     2     1    29 1   
     3     1    32 1   
     4     1    33 1   
     5     2    17 1   
     6     2    34 1   
     7     2    35 1   
     8     3    17 1   
     9     3    36 1   
    10     3    37 1   
    11     3    38 1   
    12     4     5 ar  
    13     4    25 ar  
    14     4    39 1   
    15     5     6 ar  
    16     5    29 1   
    17     6     7 ar  
    18     6    40 1   
    19     7    26 ar  
    20     7    41 1   
    21     8     9 ar  
    22     8    24 ar  
    23     8    42 1   
    24     9    10 ar  
    25     9    11 1   
    26    10    20 ar  
    27    10    43 1   
    28    11    23 2   
    29    11    31 1   
    30    12    13 1   
    31    12    14 1   
    32    12    31 1   
    33    12    46 1   
    34    13    14 1   
    35    13    47 1   
    36    13    48 1   
    37    14    49 1   
    38    14    50 1   
    39    15    16 1   
    40    15    24 1   
    41    15    28 1   
    42    16    25 1   
    43    16    30 2   
    44    17    18 1   
    45    18    19 1   
    46    18    52 1   
    47    18    53 1   
    48    19    29 1   
    49    19    54 1   
    50    19    55 1   
    51    20    21 ar  
    52    20    44 1   
    53    21    22 1   
    54    21    24 ar  
    55    22    56 1   
    56    22    57 1   
    57    22    58 1   
    58    25    26 ar  
    59    26    27 1   
    60    27    28 2   
    61    28    51 1   
    62    31    45 1   
@<TRIPOS>SUBSTRUCTURE
     1 NQB         1 TEMP              0 ****  ****    0 ROOT
