@<TRIPOS>MOLECULE
NQB
   58    62     1     0     0
SMALL
abcg2


@<TRIPOS>ATOM
      1 C1          -6.2870    -0.0770    -0.7580 c6         1 NQB       0.168300
      2 C2          -7.4970    -0.3960     0.1160 c6         1 NQB       0.155800
      3 C8          -7.6850    -2.7970    -0.1740 c3         1 NQB       0.149100
      4 C9          -2.6480     0.0870     0.1020 ca         1 NQB      -0.119000
      5 C10         -3.8860     0.3010    -0.5100 ca         1 NQB       0.304000
      6 C11         -3.8940     1.1520    -1.6420 ca         1 NQB      -0.147000
      7 C12         -2.7560     1.7760    -2.0940 ca         1 NQB      -0.062000
      8 C14          3.0620     0.2550    -0.3270 ca         1 NQB      -0.048000
      9 C15          4.3450     0.0890     0.1810 ca         1 NQB      -0.151600
     10 C16          4.6810     0.7360     1.3660 ca         1 NQB      -0.076000
     11 C19          5.3100    -0.7470    -0.5970 c          1 NQB       0.615700
     12 C20          7.3060    -2.1210    -0.5020 cx         1 NQB       0.045700
     13 C21          8.6980    -2.0200     0.0320 cx         1 NQB      -0.132400
     14 C22          8.3730    -1.4700    -1.3230 cx         1 NQB      -0.132400
     15 N29          0.8390     1.1860    -0.2260 n          1 NQB      -0.266500
     16 C30         -0.2220     0.4730     0.3140 c          1 NQB       0.575600
     17 N3          -7.4560    -1.7000     0.7440 n3         1 NQB      -0.708600
     18 C4          -6.2200    -1.8140     1.4900 c6         1 NQB       0.155800
     19 C5          -4.9680    -1.5540     0.6600 c6         1 NQB       0.168300
     20 C17          3.7500     1.5230     2.0250 ca         1 NQB      -0.119000
     21 C18          2.4570     1.6890     1.5360 ca         1 NQB      -0.026300
     22 C23          1.4650     2.5380     2.2680 c3         1 NQB      -0.056800
     23 O24          5.1810    -0.9030    -1.8020 o          1 NQB      -0.590100
     24 C13          2.1380     1.0320     0.3470 ca         1 NQB       0.013600
     25 C25         -1.4950     0.7150    -0.3600 ca         1 NQB      -0.154600
     26 C26         -1.5250     1.5800    -1.4610 ca         1 NQB       0.129400
     27 N27         -0.4020     2.2210    -1.9330 nc         1 NQB      -0.605100
     28 C28          0.6940     2.0090    -1.3170 cd         1 NQB       0.495800
     29 N5          -5.0470    -0.2670    -0.0220 nh         1 NQB      -0.793400
     30 O29         -0.0580    -0.2720     1.2610 o          1 NQB      -0.528000
     31 N32          6.3100    -1.3050     0.1090 ns         1 NQB      -0.480900
     32 H11C        -6.2990    -0.6810    -1.6770 h1         1 NQB       0.045200
     33 H12C        -6.3830     0.9660    -1.0590 h1         1 NQB       0.045200
     34 H21C        -7.5640     0.3620     0.9030 h1         1 NQB       0.061700
     35 H22C        -8.4000    -0.3090    -0.4930 h1         1 NQB       0.061700
     36 H81C        -6.9440    -2.9000    -0.9780 h1         1 NQB       0.032033
     37 H82C        -7.6980    -3.7370     0.3800 h1         1 NQB       0.032033
     38 H83C        -8.6620    -2.6790    -0.6460 h1         1 NQB       0.032033
     39 H9          -2.5520    -0.5560     0.9640 ha         1 NQB       0.136000
     40 H11         -4.8080     1.3270    -2.1910 ha         1 NQB       0.116000
     41 H12         -2.8030     2.4220    -2.9610 ha         1 NQB       0.131000
     42 H14          2.7750    -0.2300    -1.2520 ha         1 NQB       0.146000
     43 H16          5.6810     0.6640     1.7750 ha         1 NQB       0.115000
     44 H17          4.0380     2.0300     2.9370 ha         1 NQB       0.120000
     45 H32          6.2670    -1.2950     1.1160 hn         1 NQB       0.320500
     46 H20          6.9690    -3.1030    -0.8210 h1         1 NQB       0.087700
     47 H211         8.8760    -1.3110     0.8320 hc         1 NQB       0.077950
     48 H212         9.2770    -2.9310     0.1020 hc         1 NQB       0.077950
     49 H221         8.7260    -2.0000    -2.1970 hc         1 NQB       0.077950
     50 H222         8.3330    -0.3940    -1.4330 hc         1 NQB       0.077950
     51 H28          1.6050     2.4970    -1.6420 h5         1 NQB       0.054800
     52 H41C        -6.2470    -1.0930     2.3130 h1         1 NQB       0.061700
     53 H42C        -6.1480    -2.8090     1.9350 h1         1 NQB       0.061700
     54 H51C        -4.1220    -1.5720     1.3420 h1         1 NQB       0.045200
     55 H52C        -4.8110    -2.3620    -0.0690 h1         1 NQB       0.045200
     56 H231         0.8780     3.1600     1.5930 hc         1 NQB       0.054033
     57 H232         0.7650     1.9160     2.8290 hc         1 NQB       0.054033
     58 H233         1.9660     3.1930     2.9780 hc         1 NQB       0.054033
@<TRIPOS>BOND
     1     1     2 1   
     2     1    29 1   
     3     1    32 1   
     4     1    33 1   
     5     2    17 1   
     6     2    34 1   
     7     2    35 1   
     8     3    17 1   
     9     3    36 1   
    10     3    37 1   
    11     3    38 1   
    12     4     5 ar  
    13     4    25 ar  
    14     4    39 1   
    15     5     6 ar  
    16     5    29 1   
    17     6     7 ar  
    18     6    40 1   
    19     7    26 ar  
    20     7    41 1   
    21     8     9 ar  
    22     8    24 ar  
    23     8    42 1   
    24     9    10 ar  
    25     9    11 1   
    26    10    20 ar  
    27    10    43 1   
    28    11    23 2   
    29    11    31 1   
    30    12    13 1   
    31    12    14 1   
    32    12    31 1   
    33    12    46 1   
    34    13    14 1   
    35    13    47 1   
    36    13    48 1   
    37    14    49 1   
    38    14    50 1   
    39    15    16 1   
    40    15    24 1   
    41    15    28 1   
    42    16    25 1   
    43    16    30 2   
    44    17    18 1   
    45    18    19 1   
    46    18    52 1   
    47    18    53 1   
    48    19    29 1   
    49    19    54 1   
    50    19    55 1   
    51    20    21 ar  
    52    20    44 1   
    53    21    22 1   
    54    21    24 ar  
    55    22    56 1   
    56    22    57 1   
    57    22    58 1   
    58    25    26 ar  
    59    26    27 1   
    60    27    28 2   
    61    28    51 1   
    62    31    45 1   
@<TRIPOS>SUBSTRUCTURE
     1 NQB         1 TEMP              0 ****  ****    0 ROOT
