@<TRIPOS>MOLECULE
NQC
   54    57     1     0     0
SMALL
abcg2


@<TRIPOS>ATOM
      1 C10          9.6160    -0.0140    22.9170 c          1 NQC       0.594600
      2 C13          7.2480     0.2690    23.4690 c3         1 NQC       0.103000
      3 C15         11.7930    -1.2270    21.2790 c3         1 NQC      -0.059800
      4 C20         16.5490    -3.1550    20.9570 ce         1 NQC      -0.249000
      5 C21         16.0670    -4.0320    21.8440 c2         1 NQC      -0.110200
      6 C22         14.9870    -3.6760    22.7960 c6         1 NQC      -0.177200
      7 C26          6.9010    -0.6560    24.6430 c3         1 NQC      -0.051100
      8 C28          5.2330    -2.3350    23.7990 ca         1 NQC      -0.098000
      9 C1          13.2990     0.5060    22.2900 ca         1 NQC      -0.177600
     10 C2          13.5160     1.6490    23.0570 ca         1 NQC       0.001000
     11 C3          12.4940     2.2450    23.7630 ca         1 NQC      -0.184000
     12 C4          11.2060     1.7040    23.6980 ca         1 NQC       0.140600
     13 C5          10.9710     0.5490    22.9220 ca         1 NQC      -0.213600
     14 C6          12.0230    -0.0520    22.1900 ca         1 NQC       0.080700
     15 C8           8.8610     1.8910    24.3010 c          1 NQC       0.621000
     16 C14         10.4420     3.4810    25.2300 c3         1 NQC       0.086300
     17 C16         14.4790    -0.0210    21.5420 c          1 NQC       0.639900
     18 C18         15.0070    -1.3520    21.7560 cf         1 NQC      -0.481400
     19 C19         16.0110    -1.8180    20.8910 ce         1 NQC       0.322100
     20 C23         14.5800    -2.2160    22.8540 c          1 NQC       0.611300
     21 C27          5.4920    -1.1660    24.5160 ca         1 NQC      -0.071300
     22 C29          3.9250    -2.7700    23.6450 ca         1 NQC       0.124000
     23 C30          2.8530    -2.0720    24.1830 ca         1 NQC      -0.103000
     24 C31          3.1150    -0.9070    24.8970 ca         1 NQC      -0.103000
     25 C32          4.4200    -0.4580    25.0620 ca         1 NQC      -0.104000
     26 N7          10.1670     2.3120    24.3920 n          1 NQC      -0.305000
     27 N9           8.6320     0.7550    23.5370 n          1 NQC      -0.376400
     28 O11          9.3060    -1.0860    22.4160 o          1 NQC      -0.532000
     29 O12          7.9410     2.4660    24.8670 o          1 NQC      -0.563000
     30 O17         15.0030     0.7470    20.7040 o          1 NQC      -0.603100
     31 O24         16.5220    -1.0520    19.9580 oh         1 NQC      -0.538100
     32 O25         13.9150    -1.8270    23.8070 o          1 NQC      -0.540100
     33 CL1          3.6190    -4.2460    22.7450 cl         1 NQC      -0.218000
     34 H1           6.5950     1.1360    23.4640 h1         1 NQC       0.075700
     35 H2           7.1430    -0.2640    22.5290 h1         1 NQC       0.075700
     36 H3          11.6160    -2.1390    21.8500 hc         1 NQC       0.060033
     37 H4          10.9160    -1.0720    20.6550 hc         1 NQC       0.060033
     38 H5          12.6520    -1.3890    20.6320 hc         1 NQC       0.060033
     39 H8          16.4550    -5.0430    21.8800 ha         1 NQC       0.193000
     40 H10         14.0830    -4.2400    22.5250 hc         1 NQC       0.094700
     41 H11         15.2340    -4.0090    23.8080 hc         1 NQC       0.094700
     42 H12          7.6040    -1.4900    24.6550 hc         1 NQC       0.063200
     43 H13          7.0160    -0.1020    25.5760 hc         1 NQC       0.063200
     44 H14          6.0480    -2.9010    23.3670 ha         1 NQC       0.134000
     45 H15         14.5100     2.0740    23.1060 ha         1 NQC       0.126000
     46 H16         12.6990     3.1260    24.3490 ha         1 NQC       0.127000
     47 H17          9.5200     3.7680    25.7180 h1         1 NQC       0.059367
     48 H18         11.1900     3.2310    25.9800 h1         1 NQC       0.059367
     49 H19         10.8020     4.3090    24.6200 h1         1 NQC       0.059367
     50 H22          1.8420    -2.4310    24.0510 ha         1 NQC       0.129000
     51 H23          2.2920    -0.3510    25.3270 ha         1 NQC       0.118000
     52 H24          4.6120     0.4500    25.6200 ha         1 NQC       0.122000
     53 H25         16.0560    -0.1510    20.0500 ho         1 NQC       0.547000
     54 H6          17.3330    -3.4070    20.2560 ha         1 NQC       0.211000
@<TRIPOS>BOND
     1     1    13 1   
     2     1    27 1   
     3     1    28 2   
     4     2     7 1   
     5     2    27 1   
     6     2    34 1   
     7     2    35 1   
     8     3    14 1   
     9     3    36 1   
    10     3    37 1   
    11     3    38 1   
    12     4     5 2   
    13     4    19 1   
    14     4    54 1   
    15     5     6 1   
    16     5    39 1   
    17     6    20 1   
    18     6    40 1   
    19     6    41 1   
    20     7    21 1   
    21     7    42 1   
    22     7    43 1   
    23     8    21 ar  
    24     8    22 ar  
    25     8    44 1   
    26     9    10 ar  
    27     9    14 ar  
    28     9    17 1   
    29    10    11 ar  
    30    10    45 1   
    31    11    12 ar  
    32    11    46 1   
    33    12    13 ar  
    34    12    26 1   
    35    13    14 ar  
    36    15    26 1   
    37    15    27 1   
    38    15    29 2   
    39    16    26 1   
    40    16    47 1   
    41    16    48 1   
    42    16    49 1   
    43    17    18 1   
    44    17    30 2   
    45    18    19 2   
    46    18    20 1   
    47    19    31 1   
    48    20    32 2   
    49    21    25 ar  
    50    22    23 ar  
    51    22    33 1   
    52    23    24 ar  
    53    23    50 1   
    54    24    25 ar  
    55    24    51 1   
    56    25    52 1   
    57    31    53 1   
@<TRIPOS>SUBSTRUCTURE
     1 NQC         1 TEMP              0 ****  ****    0 ROOT
