@<TRIPOS>MOLECULE
NQC
   54    57     1     0     0
SMALL
No Charge or Current Charge


@<TRIPOS>ATOM
      1 C10          9.6110     0.0180    22.8780 c          1 NQC       0.594600
      2 C13          7.2160     0.2530    23.4870 c3         1 NQC       0.103000
      3 C15         11.8360    -1.1570    21.1100 c3         1 NQC      -0.059800
      4 C20         16.6420    -3.1890    21.2610 ce         1 NQC      -0.249000
      5 C21         16.0840    -3.9960    22.1850 c2         1 NQC      -0.110200
      6 C22         14.7550    -3.5960    22.7960 c6         1 NQC      -0.177200
      7 C26          6.8540    -0.7400    24.6090 c3         1 NQC      -0.051100
      8 C28          5.1130    -2.3690    23.7280 ca         1 NQC      -0.098000
      9 C1          13.3710     0.5980    22.1320 ca         1 NQC      -0.177600
     10 C2          13.5900     1.7550    22.8880 ca         1 NQC       0.001000
     11 C3          12.5520     2.3150    23.6320 ca         1 NQC      -0.184000
     12 C4          11.2820     1.7040    23.6800 ca         1 NQC       0.140600
     13 C5          11.0200     0.5780    22.8670 ca         1 NQC      -0.213600
     14 C6          12.0760     0.0200    22.0710 ca         1 NQC       0.080700
     15 C8           8.8810     1.8870    24.3190 c          1 NQC       0.621000
     16 C14         10.5310     3.3960    25.4020 c3         1 NQC       0.086300
     17 C16         14.5460     0.0420    21.3820 c          1 NQC       0.639900
     18 C18         15.0760    -1.3190    21.6680 cf         1 NQC      -0.481400
     19 C19         16.0530    -1.8960    20.9180 ce         1 NQC       0.322100
     20 C23         14.6000    -2.0720    22.8570 c          1 NQC       0.611300
     21 C27          5.4170    -1.2270    24.4950 ca         1 NQC      -0.071300
     22 C29          3.7850    -2.8130    23.6170 ca         1 NQC       0.124000
     23 C30          2.7520    -2.1200    24.2690 ca         1 NQC      -0.103000
     24 C31          3.0490    -0.9780    25.0340 ca         1 NQC      -0.103000
     25 C32          4.3780    -0.5330    25.1450 ca         1 NQC      -0.104000
     26 N7          10.2140     2.3210    24.4180 n          1 NQC      -0.305000
     27 N9           8.6260     0.7370    23.5690 n          1 NQC      -0.376400
     28 O11          9.3200    -1.0380    22.3340 o          1 NQC      -0.532000
     29 O12          7.9750     2.4790    24.8940 o          1 NQC      -0.563000
     30 O17         15.0640     0.7120    20.4960 o          1 NQC      -0.603100
     31 O24         16.5970    -1.2790    19.8540 oh         1 NQC      -0.538100
     32 O25         14.2390    -1.5160    23.8830 o          1 NQC      -0.540100
     33 Cl1          3.4150    -4.2400    22.6580 cl         1 NQC      -0.218000
     34 H1           6.5230     1.1040    23.5260 h1         1 NQC       0.075700
     35 H2           7.0400    -0.2260    22.5150 h1         1 NQC       0.075700
     36 H3          11.6510    -2.0860    21.6620 hc         1 NQC       0.060033
     37 H4          10.9760    -0.9640    20.4590 hc         1 NQC       0.060033
     38 H5          12.6680    -1.3500    20.4270 hc         1 NQC       0.060033
     39 H8          16.5190    -4.9600    22.4640 ha         1 NQC       0.193000
     40 H10         13.9930    -3.9520    22.0910 hc         1 NQC       0.094700
     41 H11         14.5810    -4.0440    23.7830 hc         1 NQC       0.094700
     42 H12          7.5450    -1.5910    24.5730 hc         1 NQC       0.063200
     43 H13          7.0150    -0.2580    25.5810 hc         1 NQC       0.063200
     44 H14          5.9040    -2.9120    23.2170 ha         1 NQC       0.134000
     45 H15         14.5730     2.2230    22.9000 ha         1 NQC       0.126000
     46 H16         12.7690     3.2240    24.1840 ha         1 NQC       0.127000
     47 H17          9.7170     3.5500    26.1200 h1         1 NQC       0.059367
     48 H18         11.4240     3.1240    25.9770 h1         1 NQC       0.059367
     49 H19         10.7140     4.3380    24.8700 h1         1 NQC       0.059367
     50 H22          1.7250    -2.4660    24.1810 ha         1 NQC       0.129000
     51 H23          2.2500    -0.4390    25.5380 ha         1 NQC       0.118000
     52 H24          4.5990     0.3530    25.7370 ha         1 NQC       0.122000
     53 H25         16.1380    -0.3990    19.8530 ho         1 NQC       0.547000
     54 H6          17.5660    -3.4660    20.7510 ha         1 NQC       0.211000
@<TRIPOS>BOND
     1     1    13 1   
     2     1    27 1   
     3     1    28 2   
     4     2     7 1   
     5     2    27 1   
     6     2    34 1   
     7     2    35 1   
     8     3    14 1   
     9     3    36 1   
    10     3    37 1   
    11     3    38 1   
    12     4     5 2   
    13     4    19 1   
    14     4    54 1   
    15     5     6 1   
    16     5    39 1   
    17     6    20 1   
    18     6    40 1   
    19     6    41 1   
    20     7    21 1   
    21     7    42 1   
    22     7    43 1   
    23     8    21 ar  
    24     8    22 ar  
    25     8    44 1   
    26     9    10 ar  
    27     9    14 ar  
    28     9    17 1   
    29    10    11 ar  
    30    10    45 1   
    31    11    12 ar  
    32    11    46 1   
    33    12    13 ar  
    34    12    26 1   
    35    13    14 ar  
    36    15    26 1   
    37    15    27 1   
    38    15    29 2   
    39    16    26 1   
    40    16    47 1   
    41    16    48 1   
    42    16    49 1   
    43    17    18 1   
    44    17    30 2   
    45    18    19 2   
    46    18    20 1   
    47    19    31 1   
    48    20    32 2   
    49    21    25 ar  
    50    22    23 ar  
    51    22    33 1   
    52    23    24 ar  
    53    23    50 1   
    54    24    25 ar  
    55    24    51 1   
    56    25    52 1   
    57    31    53 1   
@<TRIPOS>SUBSTRUCTURE
     1 NQC         1 TEMP              0 ****  ****    0 ROOT
