@<TRIPOS>MOLECULE
NQD
   68    69     1     0     0
SMALL
abcg2


@<TRIPOS>ATOM
      1 C12         -2.2040     0.4150     1.2870 c3         1 NQD      -0.026200
      2 C11         -3.6840     0.3070     1.5050 c2         1 NQD      -0.250200
      3 C01         -3.9130    -2.0890     0.8230 c3         1 NQD      -0.054900
      4 C02         -4.4470    -0.7700     1.3020 c2         1 NQD      -0.087400
      5 C03         -5.9340    -0.7130     1.5220 c3         1 NQD      -0.044200
      6 C04         -6.7480    -0.8980     0.2320 c3         1 NQD      -0.020200
      7 C05         -8.2170    -0.9200     0.5180 c2         1 NQD      -0.271200
      8 C06         -9.1250     0.0260     0.2640 ce         1 NQD      -0.145400
      9 C07        -10.5500    -0.1440     0.7120 c3         1 NQD      -0.035900
     10 C08         -8.8120     1.3520    -0.4130 c          1 NQD       0.706200
     11 C13         -1.8660     0.8610    -0.1450 c3         1 NQD      -0.047200
     12 C14         -0.3890     1.0320    -0.3830 c2         1 NQD      -0.091400
     13 C15          0.2360     2.2160     0.2970 c3         1 NQD      -0.057900
     14 C16          0.2760     0.1610    -1.1480 c2         1 NQD      -0.246200
     15 C17          1.7400     0.1420    -1.4620 c3         1 NQD      -0.029200
     16 C18          2.4250    -1.0520    -0.7930 c3         1 NQD      -0.064400
     17 C19          3.9430    -1.1240    -0.9550 c6         1 NQD       0.191000
     18 C20          4.3560    -1.2220    -2.4210 c3         1 NQD      -0.112100
     19 C21          4.4920    -2.2980    -0.1450 c6         1 NQD      -0.104400
     20 C22          6.0140    -2.3150    -0.1580 c6         1 NQD      -0.024100
     21 C23          6.5680    -0.9400     0.0910 ca         1 NQD      -0.120300
     22 C24          7.8950    -0.7650     0.4750 ca         1 NQD      -0.116000
     23 C25          8.4040     0.5010     0.7140 ca         1 NQD       0.101100
     24 C26          7.5730     1.6090     0.5680 ca         1 NQD      -0.174000
     25 C27          6.2470     1.4640     0.1810 ca         1 NQD      -0.065300
     26 C28          5.7500     0.1780    -0.0570 ca         1 NQD       0.117100
     27 C30          5.3540     2.6590     0.0240 c3         1 NQD      -0.036800
     28 O09         -9.3240     2.3560     0.1250 o          1 NQD      -0.728500
     29 O10         -8.1010     1.3450    -1.4370 o          1 NQD      -0.728500
     30 O29          4.4420     0.1000    -0.4020 os         1 NQD      -0.346100
     31 O31          9.7030     0.6100     1.0890 oh         1 NQD      -0.542100
     32 H1          -1.7930     1.1320     2.0020 hc         1 NQD       0.032200
     33 H2          -1.7020    -0.5360     1.4840 hc         1 NQD       0.032200
     34 H3          -4.1780     1.2220     1.8250 ha         1 NQD       0.177000
     35 H4          -4.3750    -2.9160     1.3670 hc         1 NQD       0.032367
     36 H5          -4.1390    -2.2470    -0.2340 hc         1 NQD       0.032367
     37 H6          -2.8330    -2.1760     0.9350 hc         1 NQD       0.032367
     38 H7          -6.2220    -1.4910     2.2390 hc         1 NQD       0.041200
     39 H8          -6.2090     0.2440     1.9720 hc         1 NQD       0.041200
     40 H9          -6.5020    -0.1060    -0.4730 hc         1 NQD       0.050700
     41 H10         -6.4650    -1.8470    -0.2360 hc         1 NQD       0.050700
     42 H11         -8.5560    -1.8050     1.0570 ha         1 NQD       0.116000
     43 H12        -10.8180     0.5940     1.4690 hc         1 NQD       0.021367
     44 H13        -11.2500    -0.0080    -0.1160 hc         1 NQD       0.021367
     45 H14        -10.7220    -1.1360     1.1320 hc         1 NQD       0.021367
     46 H15         -2.2740     0.1220    -0.8400 hc         1 NQD       0.055200
     47 H16         -2.3850     1.8040    -0.3540 hc         1 NQD       0.055200
     48 H17          0.1030     2.1660     1.3800 hc         1 NQD       0.038367
     49 H18          1.3040     2.3090     0.1080 hc         1 NQD       0.038367
     50 H19         -0.2420     3.1420    -0.0320 hc         1 NQD       0.038367
     51 H20         -0.2960    -0.6590    -1.5800 ha         1 NQD       0.166000
     52 H21          1.8670     0.0810    -2.5470 hc         1 NQD       0.046700
     53 H22          2.2220     1.0680    -1.1480 hc         1 NQD       0.046700
     54 H23          2.1940    -1.0350     0.2770 hc         1 NQD       0.050700
     55 H24          1.9990    -1.9820    -1.1820 hc         1 NQD       0.050700
     56 H25          3.9650    -0.3880    -3.0030 hc         1 NQD       0.044033
     57 H26          5.4400    -1.2230    -2.5430 hc         1 NQD       0.044033
     58 H27          3.9750    -2.1470    -2.8590 hc         1 NQD       0.044033
     59 H28          4.1330    -2.2120     0.8850 hc         1 NQD       0.056200
     60 H29          4.0940    -3.2330    -0.5430 hc         1 NQD       0.056200
     61 H30          6.3870    -3.0080     0.5990 hc         1 NQD       0.051200
     62 H31          6.3820    -2.6940    -1.1160 hc         1 NQD       0.051200
     63 H32          8.5320    -1.6350     0.5930 ha         1 NQD       0.122000
     64 H33          7.9590     2.6050     0.7590 ha         1 NQD       0.110000
     65 H34          4.9240     2.7090    -0.9780 hc         1 NQD       0.044033
     66 H35          4.5150     2.6290     0.7230 hc         1 NQD       0.044033
     67 H36          5.9020     3.5830     0.2030 hc         1 NQD       0.044033
     68 H38          9.9300     1.5350     1.2290 ho         1 NQD       0.458000
@<TRIPOS>BOND
     1     1     2 1   
     2     1    11 1   
     3     1    32 1   
     4     1    33 1   
     5     2     4 2   
     6     2    34 1   
     7     3     4 1   
     8     3    35 1   
     9     3    36 1   
    10     3    37 1   
    11     4     5 1   
    12     5     6 1   
    13     5    38 1   
    14     5    39 1   
    15     6     7 1   
    16     6    40 1   
    17     6    41 1   
    18     7     8 2   
    19     7    42 1   
    20     8     9 1   
    21     8    10 1   
    22     9    43 1   
    23     9    44 1   
    24     9    45 1   
    25    10    28 1   
    26    10    29 1   
    27    11    12 1   
    28    11    46 1   
    29    11    47 1   
    30    12    13 1   
    31    12    14 2   
    32    13    48 1   
    33    13    49 1   
    34    13    50 1   
    35    14    15 1   
    36    14    51 1   
    37    15    16 1   
    38    15    52 1   
    39    15    53 1   
    40    16    17 1   
    41    16    54 1   
    42    16    55 1   
    43    17    18 1   
    44    17    19 1   
    45    17    30 1   
    46    18    56 1   
    47    18    57 1   
    48    18    58 1   
    49    19    20 1   
    50    19    59 1   
    51    19    60 1   
    52    20    21 1   
    53    20    61 1   
    54    20    62 1   
    55    21    22 ar  
    56    21    26 ar  
    57    22    23 ar  
    58    22    63 1   
    59    23    24 ar  
    60    23    31 1   
    61    24    25 ar  
    62    24    64 1   
    63    25    26 ar  
    64    25    27 1   
    65    26    30 1   
    66    27    65 1   
    67    27    66 1   
    68    27    67 1   
    69    31    68 1   
@<TRIPOS>SUBSTRUCTURE
     1 NQD         1 TEMP              0 ****  ****    0 ROOT
