@<TRIPOS>MOLECULE
NQD
   68    69     1     0     0
SMALL
No Charge or Current Charge


@<TRIPOS>ATOM
      1 C12         -2.3030    -0.0790     1.1580 c3         1 NQD      -0.026200
      2 C11         -3.8150    -0.1510     1.2760 c2         1 NQD      -0.250200
      3 C01         -4.1910    -2.2640    -0.0990 c3         1 NQD      -0.054900
      4 C02         -4.6370    -1.0810     0.7530 c2         1 NQD      -0.087400
      5 C03         -6.1410    -1.0500     0.9910 c3         1 NQD      -0.044200
      6 C04         -6.9350    -0.4730    -0.2030 c3         1 NQD      -0.020200
      7 C05         -8.4340    -0.4410     0.0550 c2         1 NQD      -0.271200
      8 C06         -9.1970     0.4880     0.7050 ce         1 NQD      -0.145400
      9 C07        -10.7020     0.2430     0.8150 c3         1 NQD      -0.035900
     10 C08         -8.6920     1.7800     1.3500 c          1 NQD       0.706200
     11 C13         -1.8520     0.6600    -0.1200 c3         1 NQD      -0.047200
     12 C14         -0.3420     0.6590    -0.3120 c2         1 NQD      -0.091400
     13 C15          0.3730     1.6840     0.5610 c3         1 NQD      -0.057900
     14 C16          0.2640    -0.1690    -1.1850 c2         1 NQD      -0.246200
     15 C17          1.7460    -0.2540    -1.5010 c3         1 NQD      -0.029200
     16 C18          2.4940    -1.1890    -0.5180 c3         1 NQD      -0.064400
     17 C19          4.0560    -1.2240    -0.6170 c6         1 NQD       0.191000
     18 C20          4.4890    -1.6730    -2.0490 c3         1 NQD      -0.112100
     19 C21          4.6470    -2.1350     0.4930 c6         1 NQD      -0.104400
     20 C22          6.1880    -2.0580     0.5370 c6         1 NQD      -0.024100
     21 C23          6.6920    -0.6260     0.3590 ca         1 NQD      -0.120300
     22 C24          8.0290    -0.3190     0.6740 ca         1 NQD      -0.116000
     23 C25          8.5080     0.9920     0.5300 ca         1 NQD       0.101100
     24 C26          7.6560     2.0090     0.0710 ca         1 NQD      -0.174000
     25 C27          6.3150     1.7180    -0.2530 ca         1 NQD      -0.065300
     26 C28          5.8360     0.3960    -0.1190 ca         1 NQD       0.117100
     27 C30          5.3950     2.8270    -0.7510 c3         1 NQD      -0.036800
     28 O09         -9.5050     2.5090     1.9030 o          1 NQD      -0.728500
     29 O10         -7.5060     2.0680     1.3050 o          1 NQD      -0.728500
     30 O29          4.5150     0.1330    -0.4360 os         1 NQD      -0.346100
     31 O31          9.8040     1.2760     0.8410 oh         1 NQD      -0.542100
     32 H1          -1.8940     0.4290     2.0400 hc         1 NQD       0.032200
     33 H2          -1.8640    -1.0830     1.1650 hc         1 NQD       0.032200
     34 H3          -4.2370     0.6590     1.8740 ha         1 NQD       0.177000
     35 H4          -4.4470    -3.2140     0.3850 hc         1 NQD       0.032367
     36 H5          -4.6760    -2.2510    -1.0820 hc         1 NQD       0.032367
     37 H6          -3.1120    -2.2740    -0.2820 hc         1 NQD       0.032367
     38 H7          -6.5120    -2.0560     1.2240 hc         1 NQD       0.041200
     39 H8          -6.3630    -0.4410     1.8750 hc         1 NQD       0.041200
     40 H9          -6.5520     0.5210    -0.4590 hc         1 NQD       0.050700
     41 H10         -6.7420    -1.0940    -1.0860 hc         1 NQD       0.050700
     42 H11         -8.9250    -1.3220    -0.3600 ha         1 NQD       0.116000
     43 H12        -11.0180     0.1840     1.8630 hc         1 NQD       0.021367
     44 H13        -11.2710     1.0500     0.3370 hc         1 NQD       0.021367
     45 H14        -11.0090    -0.6930     0.3340 hc         1 NQD       0.021367
     46 H15         -2.3340     0.1750    -0.9780 hc         1 NQD       0.055200
     47 H16         -2.2370     1.6870    -0.1050 hc         1 NQD       0.055200
     48 H17          0.1820     1.5020     1.6250 hc         1 NQD       0.038367
     49 H18          1.4600     1.6720     0.4310 hc         1 NQD       0.038367
     50 H19          0.0310     2.7000     0.3320 hc         1 NQD       0.038367
     51 H20         -0.3390    -0.8700    -1.7660 ha         1 NQD       0.166000
     52 H21          1.8730    -0.6180    -2.5270 hc         1 NQD       0.046700
     53 H22          2.1980     0.7450    -1.4810 hc         1 NQD       0.046700
     54 H23          2.2160    -0.8920     0.5010 hc         1 NQD       0.050700
     55 H24          2.0980    -2.2040    -0.6450 hc         1 NQD       0.050700
     56 H25          4.1440    -0.9710    -2.8160 hc         1 NQD       0.044033
     57 H26          5.5780    -1.7350    -2.1510 hc         1 NQD       0.044033
     58 H27          4.0800    -2.6610    -2.2920 hc         1 NQD       0.044033
     59 H28          4.2500    -1.8200     1.4680 hc         1 NQD       0.056200
     60 H29          4.3260    -3.1760     0.3500 hc         1 NQD       0.056200
     61 H30          6.5480    -2.4710     1.4890 hc         1 NQD       0.051200
     62 H31          6.6170    -2.6940    -0.2500 hc         1 NQD       0.051200
     63 H32          8.6970    -1.0970     1.0360 ha         1 NQD       0.122000
     64 H33          8.0300     3.0240    -0.0350 ha         1 NQD       0.110000
     65 H34          5.0170     2.6000    -1.7550 hc         1 NQD       0.044033
     66 H35          4.5300     2.9460    -0.0870 hc         1 NQD       0.044033
     67 H36          5.9080     3.7940    -0.8010 hc         1 NQD       0.044033
     68 H38          9.9610     2.2320     0.6820 ho         1 NQD       0.458000
@<TRIPOS>BOND
     1     1     2 1   
     2     1    11 1   
     3     1    32 1   
     4     1    33 1   
     5     2     4 2   
     6     2    34 1   
     7     3     4 1   
     8     3    35 1   
     9     3    36 1   
    10     3    37 1   
    11     4     5 1   
    12     5     6 1   
    13     5    38 1   
    14     5    39 1   
    15     6     7 1   
    16     6    40 1   
    17     6    41 1   
    18     7     8 2   
    19     7    42 1   
    20     8     9 1   
    21     8    10 1   
    22     9    43 1   
    23     9    44 1   
    24     9    45 1   
    25    10    28 1   
    26    10    29 1   
    27    11    12 1   
    28    11    46 1   
    29    11    47 1   
    30    12    13 1   
    31    12    14 2   
    32    13    48 1   
    33    13    49 1   
    34    13    50 1   
    35    14    15 1   
    36    14    51 1   
    37    15    16 1   
    38    15    52 1   
    39    15    53 1   
    40    16    17 1   
    41    16    54 1   
    42    16    55 1   
    43    17    18 1   
    44    17    19 1   
    45    17    30 1   
    46    18    56 1   
    47    18    57 1   
    48    18    58 1   
    49    19    20 1   
    50    19    59 1   
    51    19    60 1   
    52    20    21 1   
    53    20    61 1   
    54    20    62 1   
    55    21    22 ar  
    56    21    26 ar  
    57    22    23 ar  
    58    22    63 1   
    59    23    24 ar  
    60    23    31 1   
    61    24    25 ar  
    62    24    64 1   
    63    25    26 ar  
    64    25    27 1   
    65    26    30 1   
    66    27    65 1   
    67    27    66 1   
    68    27    67 1   
    69    31    68 1   
@<TRIPOS>SUBSTRUCTURE
     1 NQD         1 TEMP              0 ****  ****    0 ROOT
