@<TRIPOS>MOLECULE
NQE
   34    36     1     0     0
SMALL
abcg2


@<TRIPOS>ATOM
      1 C1         -28.0930    32.5660    -8.5270 c          1 NQE       0.597000
      2 C2         -29.7420    31.3070    -9.9190 c3         1 NQE       0.105300
      3 C3         -27.2520    31.1190   -10.0370 ca         1 NQE       0.020600
      4 C4         -27.0690    30.1770   -11.0270 ca         1 NQE      -0.107000
      5 C6         -24.6810    30.4410   -10.6840 ca         1 NQE      -0.154000
      6 C7         -24.8820    31.3740    -9.6700 ca         1 NQE      -0.086000
      7 C9         -26.0620    28.6540   -13.5100 ca         1 NQE       0.661900
      8 C10        -27.7130    29.1800   -15.0030 ca         1 NQE       0.412900
      9 C12        -26.2300    27.4340   -15.5940 ca         1 NQE       0.011000
     10 N4         -23.5570    26.2090   -13.7020 n1         1 NQE      -0.459000
     11 C13        -25.5860    27.6380   -14.3800 ca         1 NQE      -0.155000
     12 C11        -27.3210    28.2180   -15.9220 ca         1 NQE      -0.228000
     13 N3         -27.1110    29.3950   -13.8440 nb         1 NQE      -0.743000
     14 N2         -25.4410    28.8780   -12.3250 nu         1 NQE      -0.935900
     15 C5         -25.7500    29.8490   -11.3590 ca         1 NQE       0.296000
     16 C8         -26.1830    31.7140    -9.3630 ca         1 NQE      -0.012400
     17 N          -26.7210    32.5920    -8.4480 n          1 NQE      -0.290000
     18 C          -25.9660    33.4270    -7.5500 c3         1 NQE       0.106300
     19 N1         -28.4050    31.6510    -9.5080 n          1 NQE      -0.292000
     20 O          -28.8780    33.2190    -7.8630 o          1 NQE      -0.565000
     21 H1         -30.4540    31.8800    -9.3330 h1         1 NQE       0.052033
     22 H2         -29.8910    31.5370   -10.9740 h1         1 NQE       0.052033
     23 H3         -29.9320    30.2460    -9.7600 h1         1 NQE       0.052033
     24 H4         -27.9090    29.7160   -11.5220 ha         1 NQE       0.145000
     25 H5         -23.6680    30.1710   -10.9550 ha         1 NQE       0.117000
     26 H6         -24.0380    31.8170    -9.1600 ha         1 NQE       0.125000
     27 H7         -28.5640    29.8180   -15.2170 h4         1 NQE       0.022100
     28 H8         -25.8720    26.6670   -16.2670 ha         1 NQE       0.129000
     29 H9         -27.8480    28.0910   -16.8550 ha         1 NQE       0.133000
     30 H10        -24.5560    28.4160   -12.1840 hn         1 NQE       0.507000
     31 H11        -26.6540    34.0090    -6.9450 h1         1 NQE       0.051033
     32 H12        -25.3480    32.8200    -6.8880 h1         1 NQE       0.051033
     33 H13        -25.3240    34.1100    -8.1050 h1         1 NQE       0.051033
     34 C14        -24.4700    26.8410   -14.0160 cg         1 NQE       0.329000
@<TRIPOS>BOND
     1     1    17 1   
     2     1    19 1   
     3     1    20 2   
     4     2    19 1   
     5     2    21 1   
     6     2    22 1   
     7     2    23 1   
     8     3     4 ar  
     9     3    16 ar  
    10     3    19 1   
    11     4    15 ar  
    12     4    24 1   
    13     5     6 ar  
    14     5    15 ar  
    15     5    25 1   
    16     6    16 ar  
    17     6    26 1   
    18     7    11 ar  
    19     7    13 ar  
    20     7    14 1   
    21     8    12 ar  
    22     8    13 ar  
    23     8    27 1   
    24     9    11 ar  
    25     9    12 ar  
    26     9    28 1   
    27    10    34 3   
    28    11    34 1   
    29    12    29 1   
    30    14    15 1   
    31    14    30 1   
    32    16    17 1   
    33    17    18 1   
    34    18    31 1   
    35    18    32 1   
    36    18    33 1   
@<TRIPOS>SUBSTRUCTURE
     1 NQE         1 TEMP              0 ****  ****    0 ROOT
