@<TRIPOS>MOLECULE
NQE
   34    36     1     0     0
SMALL
No Charge or Current Charge


@<TRIPOS>ATOM
      1 C1         -28.1170    32.3160    -8.2550 c          1 NQE       0.597000
      2 C2         -29.7830    31.3830    -9.9190 c3         1 NQE       0.105300
      3 C3         -27.2300    31.3140   -10.1480 ca         1 NQE       0.020600
      4 C4         -27.0080    30.3620   -11.1520 ca         1 NQE      -0.107000
      5 C6         -24.6080    30.6210   -10.7800 ca         1 NQE      -0.154000
      6 C7         -24.8500    31.4900    -9.6950 ca         1 NQE      -0.086000
      7 C9         -26.0190    28.7010   -13.6730 ca         1 NQE       0.661900
      8 C10        -27.7050    29.1380   -15.1830 ca         1 NQE       0.412900
      9 C12        -26.3010    27.2040   -15.5540 ca         1 NQE       0.011000
     10 N4         -23.5960    26.1190   -13.5860 n1         1 NQE      -0.459000
     11 C13        -25.6030    27.5600   -14.3870 ca         1 NQE      -0.155000
     12 C11        -27.3730    28.0140   -15.9530 ca         1 NQE      -0.228000
     13 N3         -27.0360    29.4810   -14.0610 nb         1 NQE      -0.743000
     14 N2         -25.3700    29.1430   -12.5300 nu         1 NQE      -0.935900
     15 C5         -25.6770    30.0620   -11.5210 ca         1 NQE       0.296000
     16 C8         -26.1730    31.8650    -9.4340 ca         1 NQE      -0.012400
     17 N          -26.7230    32.4630    -8.2660 n          1 NQE      -0.290000
     18 C          -25.9890    33.3660    -7.3630 c3         1 NQE       0.106300
     19 N1         -28.4160    31.5750    -9.4060 n          1 NQE      -0.292000
     20 O          -28.9060    32.7720    -7.4380 o          1 NQE      -0.565000
     21 H1         -30.4270    32.2100    -9.5980 h1         1 NQE       0.052033
     22 H2         -29.7700    31.3500   -11.0160 h1         1 NQE       0.052033
     23 H3         -30.1890    30.4390    -9.5350 h1         1 NQE       0.052033
     24 H4         -27.8450    29.8530   -11.6170 ha         1 NQE       0.145000
     25 H5         -23.5840    30.3450   -11.0170 ha         1 NQE       0.117000
     26 H6         -24.0320    31.8470    -9.0730 ha         1 NQE       0.125000
     27 H7         -28.5310    29.7860   -15.4730 h4         1 NQE       0.022100
     28 H8         -26.0210    26.3280   -16.1370 ha         1 NQE       0.129000
     29 H9         -27.9430    27.7820   -16.8480 ha         1 NQE       0.133000
     30 H10        -24.4360    28.7510   -12.4500 hn         1 NQE       0.507000
     31 H11        -26.6400    34.1890    -7.0420 h1         1 NQE       0.051033
     32 H12        -25.6520    32.8070    -6.4810 h1         1 NQE       0.051033
     33 H13        -25.1170    33.7850    -7.8800 h1         1 NQE       0.051033
     34 C14        -24.5010    26.7600   -13.9470 cg         1 NQE       0.329000
@<TRIPOS>BOND
     1     1    17 1   
     2     1    19 1   
     3     1    20 2   
     4     2    19 1   
     5     2    21 1   
     6     2    22 1   
     7     2    23 1   
     8     3     4 ar  
     9     3    16 ar  
    10     3    19 1   
    11     4    15 ar  
    12     4    24 1   
    13     5     6 ar  
    14     5    15 ar  
    15     5    25 1   
    16     6    16 ar  
    17     6    26 1   
    18     7    11 ar  
    19     7    13 ar  
    20     7    14 1   
    21     8    12 ar  
    22     8    13 ar  
    23     8    27 1   
    24     9    11 ar  
    25     9    12 ar  
    26     9    28 1   
    27    10    34 3   
    28    11    34 1   
    29    12    29 1   
    30    14    15 1   
    31    14    30 1   
    32    16    17 1   
    33    17    18 1   
    34    18    31 1   
    35    18    32 1   
    36    18    33 1   
@<TRIPOS>SUBSTRUCTURE
     1 NQE         1 TEMP              0 ****  ****    0 ROOT
