@<TRIPOS>MOLECULE
NQF
   54    57     1     0     0
SMALL
abcg2


@<TRIPOS>ATOM
      1 C4         -30.2900    28.7330    -6.1820 ca         1 NQF      -0.152800
      2 N3         -27.5800    28.3760    -2.5820 n8         1 NQF      -1.000200
      3 C2         -31.4490    26.9200    -7.4460 ce         1 NQF      -0.290200
      4 N1         -28.9790    30.5210    -5.2690 nb         1 NQF      -0.707000
      5 C7         -28.4480    30.5050    -1.7910 c          1 NQF       0.593000
      6 C6         -29.3790    30.1820    -4.0570 ca         1 NQF       0.508900
      7 O2         -28.0520    31.2950    -0.9570 o          1 NQF      -0.531000
      8 C5         -29.4300    29.8210    -6.2980 ca         1 NQF       0.392900
      9 C1         -31.8100    26.3490    -8.7660 c          1 NQF       0.611300
     10 C10        -30.8490    28.9510    -2.4220 c3         1 NQF      -0.025100
     11 C11        -30.3100    29.1600    -3.8050 ca         1 NQF      -0.169300
     12 C12        -30.7390    28.4280    -4.8920 ca         1 NQF      -0.036000
     13 C13        -32.8590    24.6140   -10.0710 c3         1 NQF       0.087300
     14 C14        -32.4590    24.2030    -7.6750 c3         1 NQF       0.178200
     15 C15        -33.8230    24.1360    -7.0870 cc         1 NQF      -0.007100
     16 C16        -34.7420    23.1460    -7.0260 cd         1 NQF      -0.107400
     17 C17        -34.6570    21.7540    -7.5470 c3         1 NQF      -0.024900
     18 C18        -35.8730    23.7170    -6.3390 ca         1 NQF      -0.118800
     19 C19        -37.1280    23.2470    -5.9520 ca         1 NQF      -0.057000
     20 C20        -37.9780    24.1170    -5.2900 ca         1 NQF      -0.132000
     21 C21        -37.5940    25.4350    -5.0120 ca         1 NQF      -0.087000
     22 C22        -36.3500    25.9210    -5.3880 ca         1 NQF      -0.108000
     23 C23        -35.5190    25.0350    -6.0490 ca         1 NQF       0.068100
     24 C3         -30.6940    28.0230    -7.3860 cf         1 NQF      -0.076200
     25 C8         -28.4240    28.9950    -1.5630 c3         1 NQF       0.087500
     26 C9         -29.8320    28.3980    -1.4230 c3         1 NQF      -0.094400
     27 N2         -28.8750    30.9500    -3.0140 ns         1 NQF      -0.321900
     28 N4         -32.3830    25.1220    -8.7980 n          1 NQF      -0.409800
     29 O1         -31.6190    26.9790    -9.8010 o          1 NQF      -0.602100
     30 O3         -34.2740    25.2870    -6.5030 os         1 NQF      -0.170200
     31 H1         -27.0160    27.6560    -2.1520 hn         1 NQF       0.407000
     32 H2         -28.1270    27.9130    -3.2950 hn         1 NQF       0.407000
     33 H4         -31.8230    26.4660    -6.5390 ha         1 NQF       0.186000
     34 H5         -29.0860    30.1340    -7.2790 h4         1 NQF       0.028100
     35 H6         -31.2210    29.9140    -2.0550 hc         1 NQF       0.057700
     36 H7         -31.7140    28.2880    -2.4650 hc         1 NQF       0.057700
     37 H8         -31.4610    27.6360    -4.7300 ha         1 NQF       0.122000
     38 H9         -33.5590    23.8010    -9.8870 h1         1 NQF       0.044033
     39 H10        -33.3820    25.3860   -10.6310 h1         1 NQF       0.044033
     40 H11        -32.0430    24.2310   -10.6870 h1         1 NQF       0.044033
     41 H12        -32.1750    23.2090    -8.0230 h1         1 NQF       0.066700
     42 H13        -31.7190    24.4640    -6.9180 h1         1 NQF       0.066700
     43 H14        -34.7730    21.0280    -6.7410 hc         1 NQF       0.044700
     44 H15        -35.4500    21.5610    -8.2710 hc         1 NQF       0.044700
     45 H16        -33.7050    21.5560    -8.0360 hc         1 NQF       0.044700
     46 H17        -37.4320    22.2290    -6.1620 ha         1 NQF       0.119000
     47 H18        -38.9570    23.7770    -4.9790 ha         1 NQF       0.116000
     48 H19        -38.2810    26.0890    -4.4920 ha         1 NQF       0.117000
     49 H20        -36.0500    26.9390    -5.1740 ha         1 NQF       0.131000
     50 H21        -30.3320    28.4490    -8.3160 ha         1 NQF       0.199000
     51 H22        -27.9170    28.8730    -0.6060 h1         1 NQF       0.078700
     52 H23        -30.2080    28.5770    -0.4140 hc         1 NQF       0.052700
     53 H24        -29.7390    27.3150    -1.5340 hc         1 NQF       0.052700
     54 H25        -28.6260    31.9030    -3.2480 hn         1 NQF       0.171000
@<TRIPOS>BOND
     1     1     8 ar  
     2     1    12 ar  
     3     1    24 1   
     4     2    25 1   
     5     2    31 1   
     6     2    32 1   
     7     3     9 1   
     8     3    24 2   
     9     3    33 1   
    10     4     6 ar  
    11     4     8 ar  
    12     5     7 2   
    13     5    25 1   
    14     5    27 1   
    15     6    11 ar  
    16     6    27 1   
    17     8    34 1   
    18     9    28 1   
    19     9    29 2   
    20    10    11 1   
    21    10    26 1   
    22    10    35 1   
    23    10    36 1   
    24    11    12 ar  
    25    12    37 1   
    26    13    28 1   
    27    13    38 1   
    28    13    39 1   
    29    13    40 1   
    30    14    15 1   
    31    14    28 1   
    32    14    41 1   
    33    14    42 1   
    34    15    16 2   
    35    15    30 1   
    36    16    17 1   
    37    16    18 1   
    38    17    43 1   
    39    17    44 1   
    40    17    45 1   
    41    18    19 ar  
    42    18    23 ar  
    43    19    20 ar  
    44    19    46 1   
    45    20    21 ar  
    46    20    47 1   
    47    21    22 ar  
    48    21    48 1   
    49    22    23 ar  
    50    22    49 1   
    51    23    30 1   
    52    24    50 1   
    53    25    26 1   
    54    25    51 1   
    55    26    52 1   
    56    26    53 1   
    57    27    54 1   
@<TRIPOS>SUBSTRUCTURE
     1 NQF         1 TEMP              0 ****  ****    0 ROOT
