@<TRIPOS>MOLECULE
NQF
   54    57     1     0     0
SMALL
No Charge or Current Charge


@<TRIPOS>ATOM
      1 C4         -30.7820    28.3150    -6.4220 ca         1 NQF      -0.152800
      2 N3         -27.9720    28.9250    -2.5990 n8         1 NQF      -1.000200
      3 C2         -31.2810    26.1220    -7.6500 ce         1 NQF      -0.290200
      4 N1         -30.0990    30.4820    -5.5460 nb         1 NQF      -0.707000
      5 C7         -29.7300    30.7750    -2.0320 c          1 NQF       0.593000
      6 C6         -30.4060    30.0400    -4.3150 ca         1 NQF       0.508900
      7 O2         -29.7630    31.6830    -1.2100 o          1 NQF      -0.531000
      8 C5         -30.2890    29.6290    -6.5770 ca         1 NQF       0.392900
      9 C1         -31.4980    25.3370    -8.9070 c          1 NQF       0.611300
     10 C10        -31.3440    28.3490    -2.6310 c3         1 NQF      -0.025100
     11 C11        -30.9200    28.7550    -4.0410 ca         1 NQF      -0.169300
     12 C12        -31.1110    27.8760    -5.1220 ca         1 NQF      -0.036000
     13 C13        -32.0720    23.1990   -10.0790 c3         1 NQF       0.087300
     14 C14        -32.1410    23.2750    -7.5450 c3         1 NQF       0.178200
     15 C15        -33.3170    23.8420    -6.7840 cc         1 NQF      -0.007100
     16 C16        -34.6060    24.1530    -7.1890 cd         1 NQF      -0.107400
     17 C17        -35.1960    23.9630    -8.5630 c3         1 NQF      -0.024900
     18 C18        -35.2660    24.7220    -6.0530 ca         1 NQF      -0.118800
     19 C19        -36.5580    25.2320    -5.8740 ca         1 NQF      -0.057000
     20 C20        -36.8870    25.7400    -4.5980 ca         1 NQF      -0.132000
     21 C21        -35.9320    25.7270    -3.5520 ca         1 NQF      -0.087000
     22 C22        -34.6380    25.2040    -3.7720 ca         1 NQF      -0.108000
     23 C23        -34.3380    24.7050    -5.0460 ca         1 NQF       0.068100
     24 C3         -30.9720    27.4520    -7.6080 cf         1 NQF      -0.076200
     25 C8         -29.1050    29.3650    -1.7090 c3         1 NQF       0.087500
     26 C9         -30.1800    28.2470    -1.6160 c3         1 NQF      -0.094400
     27 N2         -30.1370    30.9880    -3.3280 ns         1 NQF      -0.321900
     28 N4         -31.8880    23.9770    -8.8310 n          1 NQF      -0.409800
     29 O1         -31.3410    25.8710    -9.9970 o          1 NQF      -0.602100
     30 O3         -33.1350    24.1640    -5.4370 os         1 NQF      -0.170200
     31 H1         -27.6230    28.0110    -2.2820 hn         1 NQF       0.407000
     32 H2         -28.3280    28.7280    -3.5430 hn         1 NQF       0.407000
     33 H4         -31.3770    25.5920    -6.7130 ha         1 NQF       0.186000
     34 H5         -30.0330    30.0110    -7.5650 h4         1 NQF       0.028100
     35 H6         -32.0730    29.0790    -2.2550 hc         1 NQF       0.057700
     36 H7         -31.8790    27.3910    -2.6460 hc         1 NQF       0.057700
     37 H8         -31.5270    26.8870    -4.9490 ha         1 NQF       0.122000
     38 H9         -32.4550    22.1940    -9.8660 h1         1 NQF       0.044033
     39 H10        -32.7870    23.7130   -10.7340 h1         1 NQF       0.044033
     40 H11        -31.1100    23.1080   -10.6000 h1         1 NQF       0.044033
     41 H12        -32.3310    22.2110    -7.7290 h1         1 NQF       0.066700
     42 H13        -31.2370    23.3310    -6.9240 h1         1 NQF       0.066700
     43 H14        -34.9020    22.9960    -8.9870 hc         1 NQF       0.044700
     44 H15        -36.2910    23.9900    -8.5380 hc         1 NQF       0.044700
     45 H16        -34.8560    24.7490    -9.2470 hc         1 NQF       0.044700
     46 H17        -37.2830    25.2420    -6.6850 ha         1 NQF       0.119000
     47 H18        -37.8800    26.1460    -4.4180 ha         1 NQF       0.116000
     48 H19        -36.1950    26.1220    -2.5730 ha         1 NQF       0.117000
     49 H20        -33.8950    25.1890    -2.9790 ha         1 NQF       0.131000
     50 H21        -30.8620    27.9720    -8.5640 ha         1 NQF       0.199000
     51 H22        -28.6740    29.4710    -0.7020 h1         1 NQF       0.078700
     52 H23        -30.6130    28.2640    -0.6070 hc         1 NQF       0.052700
     53 H24        -29.7010    27.2650    -1.7160 hc         1 NQF       0.052700
     54 H25        -30.3780    31.9380    -3.5720 hn         1 NQF       0.171000
@<TRIPOS>BOND
     1     1     8 ar  
     2     1    12 ar  
     3     1    24 1   
     4     2    25 1   
     5     2    31 1   
     6     2    32 1   
     7     3     9 1   
     8     3    24 2   
     9     3    33 1   
    10     4     6 ar  
    11     4     8 ar  
    12     5     7 2   
    13     5    25 1   
    14     5    27 1   
    15     6    11 ar  
    16     6    27 1   
    17     8    34 1   
    18     9    28 1   
    19     9    29 2   
    20    10    11 1   
    21    10    26 1   
    22    10    35 1   
    23    10    36 1   
    24    11    12 ar  
    25    12    37 1   
    26    13    28 1   
    27    13    38 1   
    28    13    39 1   
    29    13    40 1   
    30    14    15 1   
    31    14    28 1   
    32    14    41 1   
    33    14    42 1   
    34    15    16 2   
    35    15    30 1   
    36    16    17 1   
    37    16    18 1   
    38    17    43 1   
    39    17    44 1   
    40    17    45 1   
    41    18    19 ar  
    42    18    23 ar  
    43    19    20 ar  
    44    19    46 1   
    45    20    21 ar  
    46    20    47 1   
    47    21    22 ar  
    48    21    48 1   
    49    22    23 ar  
    50    22    49 1   
    51    23    30 1   
    52    24    50 1   
    53    25    26 1   
    54    25    51 1   
    55    26    52 1   
    56    26    53 1   
    57    27    54 1   
@<TRIPOS>SUBSTRUCTURE
     1 NQF         1 TEMP              0 ****  ****    0 ROOT
