@<TRIPOS>MOLECULE
NQH
   24    25     1     0     0
SMALL
bcc


@<TRIPOS>ATOM
      1 N1         -27.0170    26.4410   -13.9150 n1         1 NQH      -0.372800
      2 C2         -26.5760    31.1910   -13.3330 ca         1 NQH      -0.342300
      3 C3         -26.7440    29.8130   -13.0760 ca         1 NQH       0.291600
      4 C7         -28.4550    30.3530   -10.2620 cx         1 NQH      -0.163700
      5 C6         -27.0240    30.0470   -10.6160 c3         1 NQH       0.253800
      6 C5         -26.8850    27.5750   -14.0810 cg         1 NQH       0.249800
      7 C4         -26.7270    28.9740   -14.2230 ca         1 NQH      -0.252300
      8 C9         -28.7510    31.4990    -9.3450 cx         1 NQH      -0.121400
      9 C          -26.5510    29.5580   -15.4790 ca         1 NQH       0.589300
     10 CL         -26.5330    28.5170   -16.8600 cl         1 NQH      -0.150000
     11 C1         -26.4100    31.6240   -14.6210 ca         1 NQH       0.472200
     12 N          -26.3970    30.8290   -15.7030 nb         1 NQH      -0.702000
     13 N2         -26.8880    29.3010   -11.8530 nu         1 NQH      -0.754600
     14 C8         -29.1380    31.5760   -10.7910 cx         1 NQH      -0.121400
     15 H1         -26.5680    31.9160   -12.5350 ha         1 NQH       0.147000
     16 H2         -29.0790    29.4730   -10.1440 hc         1 NQH       0.085700
     17 H3         -26.5720    29.4360    -9.8330 h1         1 NQH       0.058700
     18 H4         -26.4310    30.9610   -10.6650 h1         1 NQH       0.058700
     19 H5         -27.9200    32.1090    -9.0130 hc         1 NQH       0.075200
     20 H6         -29.5300    31.3740    -8.6050 hc         1 NQH       0.075200
     21 H7         -26.2800    32.6820   -14.8130 h4         1 NQH       0.024100
     22 H8         -27.0220    28.3050   -11.7710 hn         1 NQH       0.447800
     23 H9         -28.5790    32.2510   -11.4270 hc         1 NQH       0.075200
     24 H10        -30.1870    31.5000   -11.0460 hc         1 NQH       0.075200
@<TRIPOS>BOND
     1     1     6 3   
     2     2     3 ar  
     3     2    11 ar  
     4     2    15 1   
     5     3     7 ar  
     6     3    13 1   
     7     4     5 1   
     8     4     8 1   
     9     4    14 1   
    10     4    16 1   
    11     5    13 1   
    12     5    17 1   
    13     5    18 1   
    14     6     7 1   
    15     7     9 ar  
    16     8    14 1   
    17     8    19 1   
    18     8    20 1   
    19     9    10 1   
    20     9    12 ar  
    21    11    12 ar  
    22    11    21 1   
    23    13    22 1   
    24    14    23 1   
    25    14    24 1   
@<TRIPOS>SUBSTRUCTURE
     1 NQH         1 TEMP              0 ****  ****    0 ROOT
