@<TRIPOS>MOLECULE
NQH
   24    25     1     0     0
SMALL
No Charge or Current Charge


@<TRIPOS>ATOM
      1 N1         -27.4400    26.5500   -13.6060 n1         1 NQH      -0.462000
      2 C2         -26.2170    31.2360   -13.2820 ca         1 NQH      -0.259000
      3 C3         -26.4900    29.8990   -12.9910 ca         1 NQH       0.430000
      4 C7         -28.3270    30.2590   -10.4970 cx         1 NQH      -0.163700
      5 C6         -26.8090    30.1370   -10.4760 c3         1 NQH       0.253800
      6 C5         -27.2020    27.6750   -13.8050 cg         1 NQH       0.339000
      7 C4         -26.9020    29.0550   -14.0310 ca         1 NQH      -0.187000
      8 C9         -29.0330    31.2420    -9.5900 cx         1 NQH      -0.121400
      9 C          -27.0290    29.6040   -15.3150 ca         1 NQH       0.524000
     10 Cl         -27.5480    28.6350   -16.6950 cl         1 NQH      -0.150000
     11 C1         -26.3700    31.6950   -14.5910 ca         1 NQH       0.406900
     12 N          -26.7700    30.8970   -15.6000 nb         1 NQH      -0.702000
     13 N2         -26.3390    29.4380   -11.6800 nu         1 NQH      -0.948200
     14 C8         -29.0130    31.4750   -11.0820 cx         1 NQH      -0.121400
     15 H1         -25.8830    31.9210   -12.5110 ha         1 NQH       0.129000
     16 H2         -28.8190    29.2990   -10.6380 hc         1 NQH       0.085700
     17 H3         -26.5130    29.5730    -9.5800 h1         1 NQH       0.058700
     18 H4         -26.3510    31.1330   -10.3990 h1         1 NQH       0.058700
     19 H5         -28.4250    31.8950    -8.9680 hc         1 NQH       0.075200
     20 H6         -29.9720    30.9310    -9.1380 hc         1 NQH       0.075200
     21 H7         -26.1630    32.7340   -14.8440 h4         1 NQH       0.024100
     22 H8         -26.3230    28.4190   -11.6000 hn         1 NQH       0.503000
     23 H9         -28.3920    32.2850   -11.4570 hc         1 NQH       0.075200
     24 H10        -29.9360    31.3180   -11.6340 hc         1 NQH       0.075200
@<TRIPOS>BOND
     1     1     6 3   
     2     2     3 ar  
     3     2    11 ar  
     4     2    15 1   
     5     3     7 ar  
     6     3    13 1   
     7     4     5 1   
     8     4     8 1   
     9     4    14 1   
    10     4    16 1   
    11     5    13 1   
    12     5    17 1   
    13     5    18 1   
    14     6     7 1   
    15     7     9 ar  
    16     8    14 1   
    17     8    19 1   
    18     8    20 1   
    19     9    10 1   
    20     9    12 ar  
    21    11    12 ar  
    22    11    21 1   
    23    13    22 1   
    24    14    23 1   
    25    14    24 1   
@<TRIPOS>SUBSTRUCTURE
     1 NQH         1 TEMP              0 ****  ****    0 ROOT
