@<TRIPOS>MOLECULE
NQJ
   56    58     1     0     0
SMALL
No Charge or Current Charge


@<TRIPOS>ATOM
      1 C1           7.0410    -0.7630    -2.5230 c3         1 NQJ       0.151900
      2 C2           4.8410    -0.6970    -1.5370 c          1 NQJ       0.571100
      3 C3           4.0530    -0.2590    -0.2760 c3         1 NQJ       0.056700
      4 C5           3.1700     1.7720     1.0300 ca         1 NQJ      -0.087300
      5 C6           3.9180     2.0550     2.1900 ca         1 NQJ      -0.102500
      6 C7           3.2730     2.4970     3.3590 ca         1 NQJ      -0.108000
      7 C8           1.8770     2.6560     3.3750 ca         1 NQJ      -0.107000
      8 C9           1.1270     2.3750     2.2220 ca         1 NQJ      -0.108000
      9 C10          1.7710     1.9380     1.0520 ca         1 NQJ      -0.102500
     10 C14         -1.3770    -2.5990     1.3890 cc         1 NQJ       0.043700
     11 C16         -1.5480    -2.4300     0.0330 cd         1 NQJ      -0.486500
     12 C17         -3.0490     0.0740    -0.4290 ca         1 NQJ       0.281000
     13 C18         -2.1700     0.5250    -1.4330 ca         1 NQJ      -0.079000
     14 C19         -1.4740     1.7480    -1.3040 ca         1 NQJ      -0.177300
     15 C20         -1.6990     2.5450    -0.1610 ca         1 NQJ      -0.065000
     16 C21         -2.5950     2.1180     0.8330 ca         1 NQJ      -0.088000
     17 F3          -1.1210     2.3380    -3.5890 f          1 NQJ      -0.110000
     18 C23         -0.4940     2.1720    -2.4030 c3         1 NQJ       0.360300
     19 F1           0.1410     3.3350    -2.1290 f          1 NQJ      -0.110000
     20 F2           0.4670     1.2390    -2.5900 f          1 NQJ      -0.110000
     21 C22         -3.2660     0.8910     0.7050 ca         1 NQJ       0.105000
     22 Cl          -4.3740     0.3900     1.9870 cl         1 NQJ      -0.181000
     23 N2          -3.7040    -1.1560    -0.5540 nu         1 NQJ      -0.889100
     24 S2          -3.0200    -2.6400    -0.9110 sy         1 NQJ       1.203600
     25 O4          -2.7500    -2.6010    -2.3490 o          1 NQJ      -0.525500
     26 O5          -3.9360    -3.5880    -0.2810 o          1 NQJ      -0.525500
     27 C15         -2.4090    -3.0200     2.4010 c3         1 NQJ      -0.063800
     28 C13         -0.0510    -2.2880     1.7880 cc         1 NQJ      -0.101000
     29 S1          -0.0570    -1.9750    -0.7890 ss         1 NQJ       0.382000
     30 C12          0.7740    -1.8920     0.7640 cd         1 NQJ      -0.256600
     31 O3           2.7070    -1.3460     2.0460 o          1 NQJ      -0.579100
     32 N1           2.7530    -0.9650    -0.2040 ns         1 NQJ      -0.486900
     33 O2           4.3410    -1.2830    -2.4910 o          1 NQJ      -0.470000
     34 O1           6.1760    -0.3980    -1.4310 os         1 NQJ      -0.443100
     35 C4           3.8730     1.2810    -0.2320 c3         1 NQJ      -0.036100
     36 H1           8.0750    -0.4640    -2.3070 h1         1 NQJ       0.051033
     37 H2           7.0290    -1.8480    -2.6880 h1         1 NQJ       0.051033
     38 H3           6.7310    -0.2660    -3.4510 h1         1 NQJ       0.051033
     39 H4           4.6690    -0.5580     0.5830 h1         1 NQJ       0.108700
     40 H5           4.9980     1.9280     2.1880 ha         1 NQJ       0.114000
     41 H6           3.8560     2.7130     4.2520 ha         1 NQJ       0.113500
     42 H7           1.3790     2.9950     4.2810 ha         1 NQJ       0.113000
     43 H8           0.0460     2.4930     2.2370 ha         1 NQJ       0.113500
     44 H9           1.1820     1.7150     0.1660 ha         1 NQJ       0.114000
     45 H10         -2.0230    -0.0810    -2.3220 ha         1 NQJ       0.167000
     46 H11         -1.1860     3.4960    -0.0330 ha         1 NQJ       0.139000
     47 H12         -2.7660     2.7370     1.7100 ha         1 NQJ       0.140000
     48 H13         -4.3270    -1.3820     0.2080 hn         1 NQJ       0.512000
     49 H14         -3.3170    -2.4130     2.3190 hc         1 NQJ       0.064033
     50 H15         -2.6880    -4.0700     2.2570 hc         1 NQJ       0.064033
     51 H16         -2.0330    -2.9140     3.4260 hc         1 NQJ       0.064033
     52 H17          0.2570    -2.3220     2.8300 ha         1 NQJ       0.156000
     53 H18          2.2330    -1.0850    -1.0630 hn         1 NQJ       0.325500
     54 H19          4.8570     1.7580    -0.3140 hc         1 NQJ       0.066700
     55 H20          3.3130     1.5990    -1.1200 hc         1 NQJ       0.066700
     56 C11          2.1500    -1.3910     0.9590 c          1 NQJ       0.646700
@<TRIPOS>BOND
     1     1    34 1   
     2     1    36 1   
     3     1    37 1   
     4     1    38 1   
     5     2     3 1   
     6     2    33 2   
     7     2    34 1   
     8     3    32 1   
     9     3    35 1   
    10     3    39 1   
    11     4     5 ar  
    12     4     9 ar  
    13     4    35 1   
    14     5     6 ar  
    15     5    40 1   
    16     6     7 ar  
    17     6    41 1   
    18     7     8 ar  
    19     7    42 1   
    20     8     9 ar  
    21     8    43 1   
    22     9    44 1   
    23    10    11 2   
    24    10    27 1   
    25    10    28 1   
    26    11    24 1   
    27    11    29 1   
    28    12    13 ar  
    29    12    21 ar  
    30    12    23 1   
    31    13    14 ar  
    32    13    45 1   
    33    14    15 ar  
    34    14    18 1   
    35    15    16 ar  
    36    15    46 1   
    37    16    21 ar  
    38    16    47 1   
    39    17    18 1   
    40    18    19 1   
    41    18    20 1   
    42    21    22 1   
    43    23    24 1   
    44    23    48 1   
    45    24    25 2   
    46    24    26 2   
    47    27    49 1   
    48    27    50 1   
    49    27    51 1   
    50    28    30 2   
    51    28    52 1   
    52    29    30 1   
    53    30    56 1   
    54    31    56 2   
    55    32    53 1   
    56    32    56 1   
    57    35    54 1   
    58    35    55 1   
@<TRIPOS>SUBSTRUCTURE
     1 NQJ         1 TEMP              0 ****  ****    0 ROOT
