@<TRIPOS>MOLECULE
NQJ
   56    58     1     0     0
SMALL
bcc


@<TRIPOS>ATOM
      1 C1           7.1760    -1.5440    -1.7780 c3         1 NQJ       0.128700
      2 C2           4.9930    -1.1280    -1.0020 c          1 NQJ       0.620100
      3 C3           4.1770    -0.2700    -0.0420 c3         1 NQJ       0.056700
      4 C5           3.4940     2.0660     0.5850 ca         1 NQJ      -0.087300
      5 C6           3.9260     2.2440     1.8980 ca         1 NQJ      -0.120500
      6 C7           3.1810     2.9970     2.7930 ca         1 NQJ      -0.126000
      7 C8           1.9910     3.5900     2.3850 ca         1 NQJ      -0.125000
      8 C9           1.5560     3.4220     1.0780 ca         1 NQJ      -0.126000
      9 C10          2.3020     2.6610     0.1870 ca         1 NQJ      -0.120500
     10 C14         -1.1680    -2.9420     1.1240 cc         1 NQJ       0.043700
     11 C16         -1.3840    -2.4590    -0.1430 cd         1 NQJ      -0.341600
     12 C17         -3.3000    -0.0050    -0.1290 ca         1 NQJ       0.142600
     13 C18         -2.6810     0.7610    -1.1080 ca         1 NQJ      -0.097000
     14 C19         -2.1540     2.0080    -0.7980 ca         1 NQJ      -0.177300
     15 C20         -2.2710     2.5240     0.4820 ca         1 NQJ      -0.083000
     16 C21         -2.9140     1.7820     1.4590 ca         1 NQJ      -0.106000
     17 F3          -2.2460     2.9230    -2.9610 f          1 NQJ      -0.231300
     18 C23         -1.4630     2.7670    -1.8880 c3         1 NQJ       0.724200
     19 F1          -1.0780     3.9850    -1.4990 f          1 NQJ      -0.231300
     20 F2          -0.3640     2.1220    -2.3080 f          1 NQJ      -0.231300
     21 C22         -3.4120     0.5280     1.1590 ca         1 NQJ       0.013400
     22 CL          -4.2030    -0.3760     2.3970 cl         1 NQJ      -0.089400
     23 N2          -3.8130    -1.2760    -0.4300 nu         1 NQJ      -0.695500
     24 S2          -2.8500    -2.4630    -1.0920 sy         1 NQJ       1.345200
     25 O4          -2.4460    -2.0350    -2.4180 o          1 NQJ      -0.596300
     26 O5          -3.5940    -3.6910    -0.9090 o          1 NQJ      -0.596300
     27 C15         -2.1590    -3.6190     2.0110 c3         1 NQJ      -0.063800
     28 C13          0.1700    -2.6890     1.5170 cc         1 NQJ      -0.119000
     29 S1          -0.0060    -1.7110    -0.8390 ss         1 NQJ       0.092200
     30 C12          0.9050    -2.0240     0.5760 cd         1 NQJ      -0.111700
     31 O3           3.0050    -2.2070     1.6000 o          1 NQJ      -0.579100
     32 N1           2.8000    -0.6830    -0.0570 ns         1 NQJ      -0.553900
     33 O2           4.5300    -1.9720    -1.7210 o          1 NQJ      -0.519000
     34 O1           6.2760    -0.8230    -0.9320 os         1 NQJ      -0.419900
     35 C4           4.2950     1.2260    -0.3710 c3         1 NQJ      -0.036100
     36 H1           8.1670    -1.1660    -1.5470 h1         1 NQJ       0.051033
     37 H2           7.1380    -2.6130    -1.5750 h1         1 NQJ       0.051033
     38 H3           6.9570    -1.3660    -2.8300 h1         1 NQJ       0.051033
     39 H4           4.5710    -0.4380     0.9630 h1         1 NQJ       0.108700
     40 H5           4.8570     1.7940     2.2220 ha         1 NQJ       0.132000
     41 H6           3.5300     3.1270     3.8090 ha         1 NQJ       0.131500
     42 H7           1.4120     4.1830     3.0800 ha         1 NQJ       0.131000
     43 H8           0.6380     3.8910     0.7500 ha         1 NQJ       0.131500
     44 H9           1.9600     2.5410    -0.8350 ha         1 NQJ       0.132000
     45 H10         -2.6290     0.3810    -2.1180 ha         1 NQJ       0.185000
     46 H11         -1.8850     3.4990     0.7400 ha         1 NQJ       0.157000
     47 H12         -3.0190     2.1790     2.4590 ha         1 NQJ       0.158000
     48 H13         -4.4960    -1.6530     0.2180 hn         1 NQJ       0.456800
     49 H14         -2.7190    -2.8830     2.5890 hc         1 NQJ       0.064033
     50 H15         -2.8760    -4.2180     1.4540 hc         1 NQJ       0.064033
     51 H16         -1.6490    -4.2690     2.7190 hc         1 NQJ       0.064033
     52 H17          0.5700    -2.9930     2.4740 ha         1 NQJ       0.174000
     53 H18          2.1980    -0.2550    -0.7420 hn         1 NQJ       0.325500
     54 H19          5.3480     1.5090    -0.3270 hc         1 NQJ       0.066700
     55 H20          3.9640     1.4030    -1.3980 hc         1 NQJ       0.066700
     56 C11          2.3330    -1.6540     0.7470 c          1 NQJ       0.713700
@<TRIPOS>BOND
     1     1    34 1   
     2     1    36 1   
     3     1    37 1   
     4     1    38 1   
     5     2     3 1   
     6     2    33 2   
     7     2    34 1   
     8     3    32 1   
     9     3    35 1   
    10     3    39 1   
    11     4     5 ar  
    12     4     9 ar  
    13     4    35 1   
    14     5     6 ar  
    15     5    40 1   
    16     6     7 ar  
    17     6    41 1   
    18     7     8 ar  
    19     7    42 1   
    20     8     9 ar  
    21     8    43 1   
    22     9    44 1   
    23    10    11 2   
    24    10    27 1   
    25    10    28 1   
    26    11    24 1   
    27    11    29 1   
    28    12    13 ar  
    29    12    21 ar  
    30    12    23 1   
    31    13    14 ar  
    32    13    45 1   
    33    14    15 ar  
    34    14    18 1   
    35    15    16 ar  
    36    15    46 1   
    37    16    21 ar  
    38    16    47 1   
    39    17    18 1   
    40    18    19 1   
    41    18    20 1   
    42    21    22 1   
    43    23    24 1   
    44    23    48 1   
    45    24    25 2   
    46    24    26 2   
    47    27    49 1   
    48    27    50 1   
    49    27    51 1   
    50    28    30 2   
    51    28    52 1   
    52    29    30 1   
    53    30    56 1   
    54    31    56 2   
    55    32    53 1   
    56    32    56 1   
    57    35    54 1   
    58    35    55 1   
@<TRIPOS>SUBSTRUCTURE
     1 NQJ         1 TEMP              0 ****  ****    0 ROOT
