@<TRIPOS>MOLECULE
NQK
   34    36     1     0     0
SMALL
No Charge or Current Charge


@<TRIPOS>ATOM
      1 N1          26.4080    -8.8850    11.3210 nb         1 NQK      -0.698000
      2 C2          26.0470    -9.9560    13.8940 ca         1 NQK       0.424000
      3 N3          22.5120    -9.3070    19.4760 n          1 NQK      -0.290000
      4 C4          25.2680    -8.6740    12.0080 ca         1 NQK       0.404900
      5 N4          23.1130   -11.4350    19.2070 n          1 NQK      -0.290000
      6 C5          27.3650    -9.6360    11.9070 ca         1 NQK       0.520000
      7 C6          25.0540   -10.0960    16.2610 ca         1 NQK       0.256000
      8 C13         23.3720   -12.8470    19.5350 c3         1 NQK       0.103300
      9 C12         24.6230   -11.0740    17.1800 ca         1 NQK      -0.117000
     10 C10         22.2820   -10.6000    19.9680 c          1 NQK       0.597000
     11 C11         23.8970   -10.6610    18.3060 ca         1 NQK       0.014600
     12 N2          25.8310   -10.4940    15.1680 nu         1 NQK      -0.978000
     13 C9          23.5190    -9.3350    18.4720 ca         1 NQK       0.007600
     14 C8          23.8610    -8.3580    17.5300 ca         1 NQK      -0.100000
     15 C1          27.2320   -10.1990    13.1840 ca         1 NQK      -0.178000
     16 C3          25.0500    -9.1920    13.2850 ca         1 NQK      -0.249000
     17 C7          24.6830    -8.7410    16.4480 ca         1 NQK      -0.112000
     18 O           21.5480   -10.9240    20.8910 o          1 NQK      -0.553000
     19 Cl          28.8190    -9.8660    10.9330 cl         1 NQK      -0.146000
     20 C           28.2930   -10.9830    13.7380 cg         1 NQK       0.337000
     21 N           29.1490   -11.6320    14.1940 n1         1 NQK      -0.456000
     22 H1          24.5050    -8.0760    11.5120 h4         1 NQK       0.027100
     23 H2          21.1300    -8.3050    20.7330 h1         1 NQK       0.054033
     24 H3          22.8030    -7.6750    20.7830 h1         1 NQK       0.054033
     25 H4          21.7570    -7.3360    19.3720 h1         1 NQK       0.054033
     26 H5          22.5390   -13.2610    20.1170 h1         1 NQK       0.054033
     27 H6          23.4800   -13.4290    18.6110 h1         1 NQK       0.054033
     28 H7          24.2960   -12.9250    20.1210 h1         1 NQK       0.054033
     29 H8          24.8330   -12.1260    17.0130 ha         1 NQK       0.134000
     30 H9          26.3580   -11.3540    15.3360 hn         1 NQK       0.515000
     31 H10         23.5040    -7.3350    17.6240 ha         1 NQK       0.131000
     32 H11         24.1020    -9.0110    13.7780 ha         1 NQK       0.140000
     33 H12         25.0060    -7.9850    15.7380 ha         1 NQK       0.131000
     34 C14         22.0200    -8.0830    20.1310 c3         1 NQK       0.103300
@<TRIPOS>BOND
     1     1     4 ar  
     2     1     6 ar  
     3     2    12 1   
     4     2    15 ar  
     5     2    16 ar  
     6     3    10 1   
     7     3    13 1   
     8     3    34 1   
     9     4    16 ar  
    10     4    22 1   
    11     5     8 1   
    12     5    10 1   
    13     5    11 1   
    14     6    15 ar  
    15     6    19 1   
    16     7     9 ar  
    17     7    12 1   
    18     7    17 ar  
    19     8    26 1   
    20     8    27 1   
    21     8    28 1   
    22     9    11 ar  
    23     9    29 1   
    24    10    18 2   
    25    11    13 ar  
    26    12    30 1   
    27    13    14 ar  
    28    14    17 ar  
    29    14    31 1   
    30    15    20 1   
    31    16    32 1   
    32    17    33 1   
    33    20    21 3   
    34    23    34 1   
    35    24    34 1   
    36    25    34 1   
@<TRIPOS>SUBSTRUCTURE
     1 NQK         1 TEMP              0 ****  ****    0 ROOT
