@<TRIPOS>MOLECULE
NQK
   34    36     1     0     0
SMALL
bcc


@<TRIPOS>ATOM
      1 N1          25.8970    -9.4390    11.3920 nb         1 NQK      -0.698000
      2 C2          26.1650    -9.9270    14.1630 ca         1 NQK       0.285600
      3 N3          22.5740    -9.2960    19.4220 n          1 NQK      -0.357000
      4 C4          24.9150    -9.1670    12.2640 ca         1 NQK       0.470200
      5 N4          23.0990   -11.3890    18.9860 n          1 NQK      -0.357000
      6 C5          26.9860    -9.9450    11.8900 ca         1 NQK       0.585300
      7 C6          25.3530    -9.8760    16.4680 ca         1 NQK       0.117600
      8 C13         23.1330   -12.8290    19.0300 c3         1 NQK       0.103300
      9 C12         24.7560   -10.9310    17.1590 ca         1 NQK      -0.135000
     10 C10         22.3080   -10.5960    19.7870 c          1 NQK       0.806500
     11 C11         23.8430   -10.6040    18.1400 ca         1 NQK       0.014600
     12 N2          26.3160   -10.1760    15.4730 nu         1 NQK      -0.646000
     13 C9          23.5110    -9.2730    18.4170 ca         1 NQK       0.007600
     14 C8          24.0990    -8.2300    17.7300 ca         1 NQK      -0.118000
     15 C1          27.2020   -10.2170    13.2430 ca         1 NQK      -0.243300
     16 C3          24.9880    -9.3820    13.6160 ca         1 NQK      -0.332300
     17 C7          25.0390    -8.5500    16.7530 ca         1 NQK      -0.130000
     18 O           21.5290   -10.9700    20.6440 o          1 NQK      -0.628500
     19 CL          28.2590   -10.3040    10.7780 cl         1 NQK      -0.146000
     20 C           28.4250   -10.7660    13.6980 cg         1 NQK       0.247800
     21 N           29.4060   -11.2070    14.1160 n1         1 NQK      -0.366800
     22 H1          24.0080    -8.7540    11.8400 h4         1 NQK       0.027100
     23 H2          21.2220    -8.4540    20.7420 h1         1 NQK       0.054033
     24 H3          22.7040    -7.5180    20.5190 h1         1 NQK       0.054033
     25 H4          21.4620    -7.5350    19.2530 h1         1 NQK       0.054033
     26 H5          22.4550   -13.1770    19.8030 h1         1 NQK       0.054033
     27 H6          22.8210   -13.2510    18.0750 h1         1 NQK       0.054033
     28 H7          24.1370   -13.1820    19.2610 h1         1 NQK       0.054033
     29 H8          25.0060   -11.9580    16.9240 ha         1 NQK       0.152000
     30 H9          27.1440   -10.6650    15.7790 hn         1 NQK       0.459800
     31 H10         23.8570    -7.1980    17.9440 ha         1 NQK       0.149000
     32 H11         24.1430    -9.1400    14.2420 ha         1 NQK       0.158000
     33 H12         25.5350    -7.7560    16.2120 ha         1 NQK       0.149000
     34 C14         21.9610    -8.1340    20.0140 c3         1 NQK       0.103300
@<TRIPOS>BOND
     1     1     4 ar  
     2     1     6 ar  
     3     2    12 1   
     4     2    15 ar  
     5     2    16 ar  
     6     3    10 1   
     7     3    13 1   
     8     3    34 1   
     9     4    16 ar  
    10     4    22 1   
    11     5     8 1   
    12     5    10 1   
    13     5    11 1   
    14     6    15 ar  
    15     6    19 1   
    16     7     9 ar  
    17     7    12 1   
    18     7    17 ar  
    19     8    26 1   
    20     8    27 1   
    21     8    28 1   
    22     9    11 ar  
    23     9    29 1   
    24    10    18 2   
    25    11    13 ar  
    26    12    30 1   
    27    13    14 ar  
    28    14    17 ar  
    29    14    31 1   
    30    15    20 1   
    31    16    32 1   
    32    17    33 1   
    33    20    21 3   
    34    23    34 1   
    35    24    34 1   
    36    25    34 1   
@<TRIPOS>SUBSTRUCTURE
     1 NQK         1 TEMP              0 ****  ****    0 ROOT
