@<TRIPOS>MOLECULE
NQL
   56    58     1     0     0
SMALL
abcg2


@<TRIPOS>ATOM
      1 C1          21.5810    25.3090    -3.5270 c          1 NQL       0.601100
      2 C6          16.6230    23.3810    -1.6120 c6         1 NQL       0.098500
      3 C10         16.9290    21.5950     2.2850 ca         1 NQL      -0.196500
      4 C12         18.4240    22.1200     4.1170 ca         1 NQL      -0.166000
      5 C18         15.1810    19.2560     0.6860 c6         1 NQL      -0.125400
      6 C19         18.3690    21.7190    -1.4600 c6         1 NQL       0.098500
      7 C20         19.3040    22.7040    -0.7690 c6         1 NQL      -0.092400
      8 C14         18.9830    20.3770     2.5460 ca         1 NQL      -0.196500
      9 C15         16.5860    18.8960    -1.3210 c6         1 NQL      -0.125400
     10 C16         16.7260    17.4250    -0.9190 c6         1 NQL       0.146800
     11 C17         15.4320    17.7980     1.0620 c6         1 NQL       0.146800
     12 C9          17.7970    20.5960     1.8220 ca         1 NQL       0.337000
     13 C8          16.3720    19.8300    -0.1110 c6         1 NQL       0.201200
     14 C5          17.5060    24.4110    -0.9180 c6         1 NQL      -0.092400
     15 C4          18.9980    24.1580    -1.1410 c6         1 NQL      -0.076700
     16 C3          19.3920    24.5270    -2.5730 c3         1 NQL       0.109000
     17 C2          20.8770    26.4460    -4.2460 c3         1 NQL       0.033600
     18 O1          22.7870    25.1630    -3.6520 o          1 NQL      -0.589100
     19 N1          20.8280    24.5010    -2.7640 ns         1 NQL      -0.504900
     20 N2          16.9740    22.0340    -1.1790 n          1 NQL      -0.399800
     21 C7          16.0150    21.2370    -0.6560 c          1 NQL       0.601100
     22 O2          14.8450    21.6000    -0.6150 o          1 NQL      -0.611100
     23 N3          17.5720    19.8490     0.6960 nu         1 NQL      -0.994200
     24 C11         17.2500    22.3390     3.4130 ca         1 NQL      -0.065500
     25 C13         19.2870    21.1260     3.6670 ca         1 NQL      -0.065500
     26 N4          15.6530    16.9280    -0.0810 n7         1 NQL      -0.841400
     27 H1          15.5790    23.5710    -1.3890 h1         1 NQL       0.054700
     28 H2          16.7330    23.4430    -2.7000 h1         1 NQL       0.054700
     29 H4          18.6630    22.7070     4.9940 ha         1 NQL       0.114000
     30 H5          14.9900    19.8380     1.5890 hc         1 NQL       0.063700
     31 H6          14.2750    19.3090     0.0820 hc         1 NQL       0.063700
     32 H7          18.6180    20.7150    -1.1490 h1         1 NQL       0.054700
     33 H8          18.5090    21.7600    -2.5460 h1         1 NQL       0.054700
     34 H9          19.1990    22.5880     0.3120 hc         1 NQL       0.055950
     35 H10         20.3350    22.4270    -1.0030 hc         1 NQL       0.055950
     36 H11         19.6730    19.6110     2.2100 ha         1 NQL       0.114500
     37 H12         17.4580    19.1970    -1.9050 hc         1 NQL       0.063700
     38 H13         15.7160    19.0020    -1.9750 hc         1 NQL       0.063700
     39 H14         16.7790    16.8190    -1.8250 h1         1 NQL       0.055200
     40 H15         17.6750    17.2610    -0.3970 h1         1 NQL       0.055200
     41 H16         14.5780    17.4210     1.6280 h1         1 NQL       0.055200
     42 H17         16.2990    17.7230     1.7260 h1         1 NQL       0.055200
     43 H18         17.2310    25.4090    -1.2680 hc         1 NQL       0.055950
     44 H19         17.2970    24.3820     0.1550 hc         1 NQL       0.055950
     45 H20         19.5630    24.8170    -0.4740 hc         1 NQL       0.062700
     46 H21         19.0230    25.5320    -2.7710 h1         1 NQL       0.048700
     47 H22         18.9070    23.8690    -3.3000 h1         1 NQL       0.048700
     48 H23         20.2360    27.0340    -3.5920 h1         1 NQL       0.087700
     49 H24         21.6220    27.0960    -4.6950 h1         1 NQL       0.087700
     50 CL1         19.8610    25.7930    -5.5740 cl         1 NQL      -0.259000
     51 H26         21.3290    23.7180    -2.3670 hn         1 NQL       0.316500
     52 H27         18.2610    19.1390     0.5050 hn         1 NQL       0.487000
     53 H28         16.5570    23.1050     3.7410 ha         1 NQL       0.109000
     54 H29         20.2120    20.9300     4.1950 ha         1 NQL       0.109000
     55 H30         14.8000    16.8880    -0.6280 hn         1 NQL       0.407000
     56 H3          15.9980    21.8140     1.7830 ha         1 NQL       0.114500
@<TRIPOS>BOND
     1     1    17 1   
     2     1    18 2   
     3     1    19 1   
     4     2    14 1   
     5     2    20 1   
     6     2    27 1   
     7     2    28 1   
     8     3    12 ar  
     9     3    24 ar  
    10     3    56 1   
    11     4    24 ar  
    12     4    25 ar  
    13     4    29 1   
    14     5    11 1   
    15     5    13 1   
    16     5    30 1   
    17     5    31 1   
    18     6     7 1   
    19     6    20 1   
    20     6    32 1   
    21     6    33 1   
    22     7    15 1   
    23     7    34 1   
    24     7    35 1   
    25     8    12 ar  
    26     8    25 ar  
    27     8    36 1   
    28     9    10 1   
    29     9    13 1   
    30     9    37 1   
    31     9    38 1   
    32    10    26 1   
    33    10    39 1   
    34    10    40 1   
    35    11    26 1   
    36    11    41 1   
    37    11    42 1   
    38    12    23 1   
    39    13    21 1   
    40    13    23 1   
    41    14    15 1   
    42    14    43 1   
    43    14    44 1   
    44    15    16 1   
    45    15    45 1   
    46    16    19 1   
    47    16    46 1   
    48    16    47 1   
    49    17    48 1   
    50    17    49 1   
    51    17    50 1   
    52    19    51 1   
    53    20    21 1   
    54    21    22 2   
    55    23    52 1   
    56    24    53 1   
    57    25    54 1   
    58    26    55 1   
@<TRIPOS>SUBSTRUCTURE
     1 NQL         1 TEMP              0 ****  ****    0 ROOT
