@<TRIPOS>MOLECULE
NQL
   56    58     1     0     0
SMALL
No Charge or Current Charge


@<TRIPOS>ATOM
      1 C1          21.4110    24.6700    -3.2540 c          1 NQL       0.601100
      2 C6          16.4080    23.5340    -1.5450 c6         1 NQL       0.098500
      3 C10         17.0710    20.9900     2.9360 ca         1 NQL      -0.196500
      4 C12         18.9790    22.1090     3.9450 ca         1 NQL      -0.166000
      5 C18         15.0740    19.1720     0.2620 c6         1 NQL      -0.125400
      6 C19         18.4360    22.1930    -1.0350 c6         1 NQL       0.098500
      7 C20         19.0600    23.3960    -0.2860 c6         1 NQL      -0.092400
      8 C14         19.3040    20.5800     2.0820 ca         1 NQL      -0.196500
      9 C15         16.9980    19.2860    -1.3740 c6         1 NQL      -0.125400
     10 C16         16.9500    17.7400    -1.4670 c6         1 NQL       0.146800
     11 C17         15.1150    17.6320     0.1440 c6         1 NQL       0.146800
     12 C9          17.9200    20.3580     2.0150 ca         1 NQL       0.337000
     13 C8          16.4450    19.8680    -0.0220 c6         1 NQL       0.201200
     14 C5          17.0040    24.7590    -0.8050 c6         1 NQL      -0.092400
     15 C4          18.5540    24.7560    -0.8420 c6         1 NQL      -0.076700
     16 C3          19.1050    25.0790    -2.2640 c3         1 NQL       0.109000
     17 C2          20.8070    24.2320    -4.6020 c3         1 NQL       0.033600
     18 O1          22.6140    24.6220    -3.0370 o          1 NQL      -0.589100
     19 N1          20.5690    25.1800    -2.2870 ns         1 NQL      -0.504900
     20 N2          16.9480    22.2430    -1.0360 n          1 NQL      -0.399800
     21 C7          16.1900    21.4560    -0.1330 c          1 NQL       0.601100
     22 O2          15.3670    22.0190     0.5880 o          1 NQL      -0.611100
     23 N3          17.4210    19.4810     1.0550 nu         1 NQL      -0.994200
     24 C11         17.5950    21.8710     3.8970 ca         1 NQL      -0.065500
     25 C13         19.8360    21.4600     3.0410 ca         1 NQL      -0.065500
     26 N4          15.5940    17.2250    -1.1930 n7         1 NQL      -0.841400
     27 H1          15.3130    23.5480    -1.4500 h1         1 NQL       0.054700
     28 H2          16.6290    23.6080    -2.6190 h1         1 NQL       0.054700
     29 H4          19.3880    22.7900     4.6880 ha         1 NQL       0.114000
     30 H5          14.7170    19.4440     1.2640 hc         1 NQL       0.063700
     31 H6          14.3210    19.5570    -0.4390 hc         1 NQL       0.063700
     32 H7          18.7940    21.2800    -0.5460 h1         1 NQL       0.054700
     33 H8          18.7960    22.1670    -2.0730 h1         1 NQL       0.054700
     34 H9          18.7970    23.3240     0.7790 hc         1 NQL       0.055950
     35 H10         20.1550    23.3360    -0.3310 hc         1 NQL       0.055950
     36 H11         19.9700    20.0820     1.3830 ha         1 NQL       0.114500
     37 H12         18.0310    19.5960    -1.5610 hc         1 NQL       0.063700
     38 H13         16.4090    19.6990    -2.2050 hc         1 NQL       0.063700
     39 H14         17.2680    17.4240    -2.4730 h1         1 NQL       0.055200
     40 H15         17.6610    17.3020    -0.7500 h1         1 NQL       0.055200
     41 H16         14.1080    17.2240     0.3160 h1         1 NQL       0.055200
     42 H17         15.7750    17.2160     0.9200 h1         1 NQL       0.055200
     43 H18         16.6120    25.6870    -1.2430 hc         1 NQL       0.055950
     44 H19         16.6640    24.7460     0.2390 hc         1 NQL       0.055950
     45 H20         18.9150    25.5600    -0.1850 hc         1 NQL       0.062700
     46 H21         18.6900    26.0390    -2.5980 h1         1 NQL       0.048700
     47 H22         18.7670    24.3040    -2.9610 h1         1 NQL       0.048700
     48 H23         19.9540    24.8740    -4.8520 h1         1 NQL       0.087700
     49 H24         21.5730    24.3460    -5.3780 h1         1 NQL       0.087700
     50 Cl1         20.2510    22.4900    -4.6170 cl         1 NQL      -0.259000
     51 H26         21.0310    25.5060    -1.4470 hn         1 NQL       0.316500
     52 H27         18.1080    18.7830     0.7760 hn         1 NQL       0.487000
     53 H28         16.9320    22.3650     4.6040 ha         1 NQL       0.109000
     54 H29         20.9090    21.6380     3.0820 ha         1 NQL       0.109000
     55 H30         14.9500    17.5990    -1.9010 hn         1 NQL       0.407000
     56 H3          16.0030    20.7990     2.9080 ha         1 NQL       0.114500
@<TRIPOS>BOND
     1     1    17 1   
     2     1    18 2   
     3     1    19 1   
     4     2    14 1   
     5     2    20 1   
     6     2    27 1   
     7     2    28 1   
     8     3    12 ar  
     9     3    24 ar  
    10     3    56 1   
    11     4    24 ar  
    12     4    25 ar  
    13     4    29 1   
    14     5    11 1   
    15     5    13 1   
    16     5    30 1   
    17     5    31 1   
    18     6     7 1   
    19     6    20 1   
    20     6    32 1   
    21     6    33 1   
    22     7    15 1   
    23     7    34 1   
    24     7    35 1   
    25     8    12 ar  
    26     8    25 ar  
    27     8    36 1   
    28     9    10 1   
    29     9    13 1   
    30     9    37 1   
    31     9    38 1   
    32    10    26 1   
    33    10    39 1   
    34    10    40 1   
    35    11    26 1   
    36    11    41 1   
    37    11    42 1   
    38    12    23 1   
    39    13    21 1   
    40    13    23 1   
    41    14    15 1   
    42    14    43 1   
    43    14    44 1   
    44    15    16 1   
    45    15    45 1   
    46    16    19 1   
    47    16    46 1   
    48    16    47 1   
    49    17    48 1   
    50    17    49 1   
    51    17    50 1   
    52    19    51 1   
    53    20    21 1   
    54    21    22 2   
    55    23    52 1   
    56    24    53 1   
    57    25    54 1   
    58    26    55 1   
@<TRIPOS>SUBSTRUCTURE
     1 NQL         1 TEMP              0 ****  ****    0 ROOT
