@<TRIPOS>MOLECULE
NQM
   17    16     1     0     0
SMALL
abcg2


@<TRIPOS>ATOM
      1 O1          -3.0140    -0.6560     1.3440 o          1 NQM      -0.756000
      2 C7           1.9570     0.7640     0.0700 ce         1 NQM      -0.313200
      3 C6           1.3860    -1.6510    -0.0050 c          1 NQM       0.699200
      4 C5           1.0290    -0.1830     0.2340 cf         1 NQM      -0.156400
      5 C4          -0.3800     0.0420     0.6670 c3         1 NQM      -0.127200
      6 C3           1.8540     2.2600     0.2360 c          1 NQM       0.705200
      7 C2          -1.3730    -0.4100    -0.3670 c          1 NQM       0.488100
      8 C1          -2.7880    -0.8330     0.1320 c          1 NQM       0.641000
      9 O10          2.5450    -1.9290    -0.3760 o          1 NQM      -0.770500
     10 O2          -3.5510    -1.2910    -0.7290 o          1 NQM      -0.756000
     11 O3          -1.1220    -0.3930    -1.5500 o          1 NQM      -0.590100
     12 O4           0.8720     2.7580     0.8290 o          1 NQM      -0.788000
     13 O5           2.8050     2.9010    -0.2610 o          1 NQM      -0.788000
     14 O9           0.4670    -2.4680     0.2010 o          1 NQM      -0.770500
     15 H1           2.9340     0.4200    -0.2580 ha         1 NQM       0.150000
     16 H2          -0.5860    -0.4670     1.6100 hc         1 NQM       0.065700
     17 H3          -0.5560     1.1040     0.8550 hc         1 NQM       0.065700
@<TRIPOS>BOND
     1     1     8 1   
     2     2     4 2   
     3     2     6 1   
     4     2    15 1   
     5     3     4 1   
     6     3     9 1   
     7     3    14 1   
     8     4     5 1   
     9     5     7 1   
    10     5    16 1   
    11     5    17 1   
    12     6    12 1   
    13     6    13 1   
    14     7     8 1   
    15     7    11 2   
    16     8    10 1   
@<TRIPOS>SUBSTRUCTURE
     1 NQM         1 TEMP              0 ****  ****    0 ROOT
