@<TRIPOS>MOLECULE
NQM
   17    16     1     0     0
SMALL
No Charge or Current Charge


@<TRIPOS>ATOM
      1 O1          -3.1630    -1.0620     1.2450 o          1 NQM      -0.756000
      2 C7           1.9890     0.7610    -0.0080 ce         1 NQM      -0.313200
      3 C6           1.3100    -1.6690     0.1110 c          1 NQM       0.699200
      4 C5           1.0080    -0.1810     0.2620 cf         1 NQM      -0.156400
      5 C4          -0.4130     0.1490     0.7570 c3         1 NQM      -0.127200
      6 C3           1.9850     2.2600     0.0470 c          1 NQM       0.705200
      7 C2          -1.4970    -0.1130    -0.3130 c          1 NQM       0.488100
      8 C1          -2.7180    -1.1090     0.0990 c          1 NQM       0.641000
      9 O10          2.4230    -2.0220    -0.2530 o          1 NQM      -0.770500
     10 O2          -3.2210    -1.8240    -0.7680 o          1 NQM      -0.756000
     11 O3          -1.4480     0.4500    -1.4150 o          1 NQM      -0.590100
     12 O4           0.9840     2.8800     0.3560 o          1 NQM      -0.788000
     13 O5           3.0310     2.8170    -0.2430 o          1 NQM      -0.788000
     14 O9           0.4250    -2.4780     0.3500 o          1 NQM      -0.770500
     15 H1           2.9560     0.3830    -0.3300 ha         1 NQM       0.150000
     16 H2          -0.6450    -0.4540     1.6420 hc         1 NQM       0.065700
     17 H3          -0.5250     1.1800     1.0920 hc         1 NQM       0.065700
@<TRIPOS>BOND
     1     1     8 1   
     2     2     4 2   
     3     2     6 1   
     4     2    15 1   
     5     3     4 1   
     6     3     9 1   
     7     3    14 1   
     8     4     5 1   
     9     5     7 1   
    10     5    16 1   
    11     5    17 1   
    12     6    12 1   
    13     6    13 1   
    14     7     8 1   
    15     7    11 2   
    16     8    10 1   
@<TRIPOS>SUBSTRUCTURE
     1 NQM         1 TEMP              0 ****  ****    0 ROOT
