@<TRIPOS>MOLECULE
NQN
   44    46     1     0     0
SMALL
No Charge or Current Charge


@<TRIPOS>ATOM
      1 C2          27.2670   -10.1240    13.0660 ca         1 NQN      -0.178000
      2 C3          26.0960    -9.8410    13.7830 ca         1 NQN       0.423000
      3 C4          25.1750    -8.9490    13.2310 ca         1 NQN      -0.250000
      4 C5          25.0570   -10.0870    16.1220 ca         1 NQN       0.255000
      5 C10         24.5300   -11.0970    16.9520 ca         1 NQN      -0.119000
      6 C11         22.1770   -10.6590    19.7320 c          1 NQN       0.595000
      7 C6          24.7970    -8.7260    16.4160 ca         1 NQN      -0.112000
      8 C7          23.9900    -8.3650    17.5170 ca         1 NQN      -0.101000
      9 N1          25.8180   -10.4590    15.0080 nu         1 NQN      -0.977000
     10 C1          27.4650    -9.4730    11.8390 ca         1 NQN       0.520000
     11 N           26.5830    -8.6010    11.3090 nb         1 NQN      -0.698000
     12 C17         28.2520   -11.0360    13.5630 cg         1 NQN       0.336000
     13 N4          29.0440   -11.7890    13.9720 n1         1 NQN      -0.455000
     14 C           25.4540    -8.3510    12.0010 ca         1 NQN       0.404900
     15 C9          23.8210   -10.7180    18.1000 ca         1 NQN       0.015600
     16 N2          22.9550   -11.4940    18.9190 n          1 NQN      -0.292000
     17 C13         23.0780   -12.9470    19.1210 c3         1 NQN       0.123000
     18 C14         22.2060   -13.7530    18.1310 c3         1 NQN      -0.139400
     19 C15         22.3020   -15.2900    18.2730 c3         1 NQN       0.177300
     20 O1          21.8890   -15.6770    19.5850 oh         1 NQN      -0.660000
     21 C16         23.7130   -15.8520    18.0020 c3         1 NQN      -0.091100
     22 O           21.3930   -10.9950    20.6090 o          1 NQN      -0.554000
     23 N3          22.5280    -9.3540    19.3590 n          1 NQN      -0.290000
     24 C12         22.1280    -8.1530    20.1130 c3         1 NQN       0.103300
     25 C8          23.5550    -9.3820    18.3760 ca         1 NQN       0.007600
     26 H1          24.2380    -8.7300    13.7290 ha         1 NQN       0.139000
     27 H2          24.6530   -12.1450    16.6980 ha         1 NQN       0.134000
     28 H3          25.1910    -7.9440    15.7740 ha         1 NQN       0.131000
     29 H4          23.7150    -7.3270    17.6910 ha         1 NQN       0.131000
     30 H5          26.2710   -11.3700    15.1100 hn         1 NQN       0.515000
     31 H6          24.7500    -7.6530    11.5490 h4         1 NQN       0.027100
     32 H7          22.7920   -13.1930    20.1520 h1         1 NQN       0.072700
     33 H8          24.1330   -13.2230    18.9980 h1         1 NQN       0.072700
     34 H9          22.4850   -13.4780    17.1060 hc         1 NQN       0.053700
     35 H10         21.1600   -13.4490    18.2550 hc         1 NQN       0.053700
     36 H11         21.6250   -15.7350    17.5310 h1         1 NQN       0.032700
     37 H12         20.9280   -15.4850    19.6510 ho         1 NQN       0.446000
     38 H13         23.6960   -16.9480    18.0220 hc         1 NQN       0.044367
     39 H14         24.0700   -15.5370    17.0150 hc         1 NQN       0.044367
     40 H15         24.4320   -15.5110    18.7560 hc         1 NQN       0.044367
     41 H16         21.2010    -8.3450    20.6680 h1         1 NQN       0.053700
     42 H17         22.9220    -7.8820    20.8190 h1         1 NQN       0.053700
     43 H18         21.9600    -7.3190    19.4200 h1         1 NQN       0.053700
     44 Cl          28.9090    -9.7450    10.8620 cl         1 NQN      -0.146000
@<TRIPOS>BOND
     1     1     2 ar  
     2     1    10 ar  
     3     1    12 1   
     4     2     3 ar  
     5     2     9 1   
     6     3    14 ar  
     7     3    26 1   
     8     4     5 ar  
     9     4     7 ar  
    10     4     9 1   
    11     5    15 ar  
    12     5    27 1   
    13     6    16 1   
    14     6    22 2   
    15     6    23 1   
    16     7     8 ar  
    17     7    28 1   
    18     8    25 ar  
    19     8    29 1   
    20     9    30 1   
    21    10    11 ar  
    22    10    44 1   
    23    11    14 ar  
    24    12    13 3   
    25    14    31 1   
    26    15    16 1   
    27    15    25 ar  
    28    16    17 1   
    29    17    18 1   
    30    17    32 1   
    31    17    33 1   
    32    18    19 1   
    33    18    34 1   
    34    18    35 1   
    35    19    20 1   
    36    19    21 1   
    37    19    36 1   
    38    20    37 1   
    39    21    38 1   
    40    21    39 1   
    41    21    40 1   
    42    23    24 1   
    43    23    25 1   
    44    24    41 1   
    45    24    42 1   
    46    24    43 1   
@<TRIPOS>SUBSTRUCTURE
     1 NQN         1 TEMP              0 ****  ****    0 ROOT
