@<TRIPOS>MOLECULE
NQN
   44    46     1     0     0
SMALL
bcc


@<TRIPOS>ATOM
      1 C2          27.2120   -10.2770    13.2220 ca         1 NQN      -0.243300
      2 C3          26.1790    -9.9790    14.1440 ca         1 NQN       0.284600
      3 C4          25.0030    -9.4320    13.5980 ca         1 NQN      -0.333300
      4 C5          25.3710    -9.9260    16.4500 ca         1 NQN       0.116600
      5 C10         24.7770   -10.9840    17.1400 ca         1 NQN      -0.137000
      6 C11         22.3230   -10.6590    19.7650 c          1 NQN       0.804500
      7 C6          25.0510    -8.6020    16.7360 ca         1 NQN      -0.130000
      8 C7          24.1080    -8.2870    17.7110 ca         1 NQN      -0.119000
      9 N1          26.3340   -10.2230    15.4550 nu         1 NQN      -0.645000
     10 C1          26.9930   -10.0090    11.8690 ca         1 NQN       0.585300
     11 N           25.9050    -9.5010    11.3720 nb         1 NQN      -0.698000
     12 C17         28.4340   -10.8320    13.6750 cg         1 NQN       0.246800
     13 N4          29.4110   -11.2840    14.0880 n1         1 NQN      -0.365800
     14 C           24.9260    -9.2220    12.2460 ca         1 NQN       0.470200
     15 C9          23.8630   -10.6630    18.1220 ca         1 NQN       0.015600
     16 N2          23.1290   -11.4500    18.9780 n          1 NQN      -0.359000
     17 C13         23.1270   -12.8960    19.0010 c3         1 NQN       0.123000
     18 C14         22.2560   -13.4860    17.8980 c3         1 NQN      -0.139400
     19 C15         22.2630   -15.0140    17.8570 c3         1 NQN       0.154100
     20 O1          21.8350   -15.5710    19.0870 oh         1 NQN      -0.597800
     21 C16         23.6310   -15.5950    17.5430 c3         1 NQN      -0.091100
     22 O           21.5380   -11.0380    20.6150 o          1 NQN      -0.629500
     23 N3          22.5850    -9.3570    19.4010 n          1 NQN      -0.357000
     24 C12         21.9710    -8.1970    19.9920 c3         1 NQN       0.103300
     25 C8          23.5240    -9.3330    18.3970 ca         1 NQN       0.007600
     26 H1          24.1600    -9.1840    14.2260 ha         1 NQN       0.157000
     27 H2          25.0310   -12.0080    16.9000 ha         1 NQN       0.152000
     28 H3          25.5440    -7.8050    16.1940 ha         1 NQN       0.149000
     29 H4          23.8600    -7.2560    17.9250 ha         1 NQN       0.149000
     30 H5          27.1590   -10.7190    15.7580 hn         1 NQN       0.459800
     31 H6          24.0200    -8.8070    11.8220 h4         1 NQN       0.027100
     32 H7          22.7760   -13.2140    19.9810 h1         1 NQN       0.072700
     33 H8          24.1630   -13.2290    18.9140 h1         1 NQN       0.072700
     34 H9          22.5810   -13.1120    16.9220 hc         1 NQN       0.053700
     35 H10         21.2290   -13.1340    18.0320 hc         1 NQN       0.053700
     36 H11         21.5800   -15.3120    17.0490 h1         1 NQN       0.032700
     37 H12         20.9340   -15.2770    19.2540 ho         1 NQN       0.407000
     38 H13         23.5700   -16.6750    17.4060 hc         1 NQN       0.044367
     39 H14         24.0200   -15.1660    16.6200 hc         1 NQN       0.044367
     40 H15         24.3530   -15.4020    18.3370 hc         1 NQN       0.044367
     41 H16         21.2440    -8.5170    20.7330 h1         1 NQN       0.053700
     42 H17         22.7160    -7.5720    20.4830 h1         1 NQN       0.053700
     43 H18         21.4570    -7.6070    19.2340 h1         1 NQN       0.053700
     44 CL          28.2610   -10.3790    10.7540 cl         1 NQN      -0.146000
@<TRIPOS>BOND
     1     1     2 ar  
     2     1    10 ar  
     3     1    12 1   
     4     2     3 ar  
     5     2     9 1   
     6     3    14 ar  
     7     3    26 1   
     8     4     5 ar  
     9     4     7 ar  
    10     4     9 1   
    11     5    15 ar  
    12     5    27 1   
    13     6    16 1   
    14     6    22 2   
    15     6    23 1   
    16     7     8 ar  
    17     7    28 1   
    18     8    25 ar  
    19     8    29 1   
    20     9    30 1   
    21    10    11 ar  
    22    10    44 1   
    23    11    14 ar  
    24    12    13 3   
    25    14    31 1   
    26    15    16 1   
    27    15    25 ar  
    28    16    17 1   
    29    17    18 1   
    30    17    32 1   
    31    17    33 1   
    32    18    19 1   
    33    18    34 1   
    34    18    35 1   
    35    19    20 1   
    36    19    21 1   
    37    19    36 1   
    38    20    37 1   
    39    21    38 1   
    40    21    39 1   
    41    21    40 1   
    42    23    24 1   
    43    23    25 1   
    44    24    41 1   
    45    24    42 1   
    46    24    43 1   
@<TRIPOS>SUBSTRUCTURE
     1 NQN         1 TEMP              0 ****  ****    0 ROOT
