@<TRIPOS>MOLECULE
NQO
   30    31     1     0     0
SMALL
abcg2


@<TRIPOS>ATOM
      1 N1           8.0670     0.6500    18.4740 nb         1 NQO      -0.315000
      2 C4           7.4350     0.3870    19.6100 ca         1 NQO       0.415900
      3 C5           9.4410     0.0570    21.0390 c          1 NQO       0.606100
      4 C6           9.8880    -0.7930    22.2280 c3         1 NQO      -0.111100
      5 C7          11.3700    -0.7500    22.4630 ca         1 NQO      -0.065300
      6 C8          11.9380     0.2180    23.2890 ca         1 NQO      -0.088000
      7 C10         14.1460    -0.6560    22.8570 ca         1 NQO      -0.095000
      8 C11         13.5710    -1.6170    22.0380 ca         1 NQO       0.126000
      9 C9          13.3130     0.2640    23.4840 ca         1 NQO      -0.100000
     10 C12         12.2000    -1.6770    21.8330 ca         1 NQO      -0.087000
     11 O           10.1250     0.9350    20.5480 o          1 NQO      -0.524100
     12 N2           8.1710    -0.2530    20.6200 ns         1 NQO      -0.345900
     13 C1           6.0740     0.6830    19.8380 ca         1 NQO      -0.111300
     14 C            5.4010     0.3670    21.1360 c3         1 NQO      -0.048800
     15 N            7.4250     1.2580    17.4790 nb         1 NQO      -0.287000
     16 C3           6.1440     1.5670    17.6260 ca         1 NQO       0.257900
     17 C2           5.4240     1.2900    18.7860 ca         1 NQO      -0.106000
     18 H1           9.3530    -0.4120    23.1030 hc         1 NQO       0.065200
     19 H2           9.5500    -1.8190    22.0730 hc         1 NQO       0.065200
     20 H3          11.2970     0.9370    23.7850 ha         1 NQO       0.116000
     21 H4          15.2170    -0.6310    23.0060 ha         1 NQO       0.131000
     22 H5          13.7450     1.0190    24.1290 ha         1 NQO       0.120000
     23 H6          11.7800    -2.4400    21.1910 ha         1 NQO       0.129000
     24 H7           7.6580    -0.9000    21.1990 hn         1 NQO       0.150000
     25 H8           5.3730    -0.7130    21.3120 hc         1 NQO       0.050700
     26 H9           5.9420     0.8160    21.9720 hc         1 NQO       0.050700
     27 H10          4.3780     0.7390    21.1370 hc         1 NQO       0.050700
     28 H11          5.6770     2.0530    16.7780 h4         1 NQO       0.032100
     29 H12          4.3790     1.5610    18.8610 ha         1 NQO       0.130000
     30 CL          14.6030    -2.7930    21.2430 cl         1 NQO      -0.213000
@<TRIPOS>BOND
     1     1     2 ar  
     2     1    15 ar  
     3     2    12 1   
     4     2    13 ar  
     5     3     4 1   
     6     3    11 2   
     7     3    12 1   
     8     4     5 1   
     9     4    18 1   
    10     4    19 1   
    11     5     6 ar  
    12     5    10 ar  
    13     6     9 ar  
    14     6    20 1   
    15     7     8 ar  
    16     7     9 ar  
    17     7    21 1   
    18     8    10 ar  
    19     8    30 1   
    20     9    22 1   
    21    10    23 1   
    22    12    24 1   
    23    13    14 1   
    24    13    17 ar  
    25    14    25 1   
    26    14    26 1   
    27    14    27 1   
    28    15    16 ar  
    29    16    17 ar  
    30    16    28 1   
    31    17    29 1   
@<TRIPOS>SUBSTRUCTURE
     1 NQO         1 TEMP              0 ****  ****    0 ROOT
