@<TRIPOS>MOLECULE
NQO
   30    31     1     0     0
SMALL
No Charge or Current Charge


@<TRIPOS>ATOM
      1 N1           7.4900     2.4340    19.7800 nb         1 NQO      -0.315000
      2 C4           7.5170     1.1330    20.1650 ca         1 NQO       0.415900
      3 C5           9.3880     1.4540    21.8480 c          1 NQO       0.606100
      4 C6           9.9260     0.7910    23.1210 c3         1 NQO      -0.111100
      5 C7          11.1040    -0.1200    22.7910 ca         1 NQO      -0.065300
      6 C8          12.4240     0.3700    22.8560 ca         1 NQO      -0.088000
      7 C10         13.2800    -1.8010    22.1620 ca         1 NQO      -0.095000
      8 C11         11.9670    -2.2930    22.0940 ca         1 NQO       0.126000
      9 C9          13.5090    -0.4680    22.5430 ca         1 NQO      -0.100000
     10 C12         10.8820    -1.4580    22.4070 ca         1 NQO      -0.087000
     11 O            9.9310     2.4310    21.3490 o          1 NQO      -0.524100
     12 N2           8.2840     0.8260    21.3080 ns         1 NQO      -0.345900
     13 C1           6.7460     0.1470    19.5070 ca         1 NQO      -0.111300
     14 C            6.7490    -1.3120    19.9540 c3         1 NQO      -0.048800
     15 N            6.7410     2.8250    18.7260 nb         1 NQO      -0.287000
     16 C3           5.9960     1.9240    18.0420 ca         1 NQO       0.257900
     17 C2           5.9680     0.5640    18.4040 ca         1 NQO      -0.106000
     18 H1          10.2460     1.5730    23.8180 hc         1 NQO       0.065200
     19 H2           9.1350     0.1910    23.5870 hc         1 NQO       0.065200
     20 H3          12.6100     1.4020    23.1460 ha         1 NQO       0.116000
     21 H4          14.1170    -2.4510    21.9180 ha         1 NQO       0.131000
     22 H5          14.5250    -0.0840    22.5950 ha         1 NQO       0.120000
     23 H6           9.8700    -1.8520    22.3490 ha         1 NQO       0.129000
     24 H7           7.9790    -0.0040    21.7970 hn         1 NQO       0.150000
     25 H8           7.7690    -1.7150    19.9760 hc         1 NQO       0.050700
     26 H9           6.3240    -1.4160    20.9590 hc         1 NQO       0.050700
     27 H10          6.1610    -1.9440    19.2780 hc         1 NQO       0.050700
     28 H11          5.4140     2.2990    17.2010 h4         1 NQO       0.032100
     29 H12          5.3560    -0.1370    17.8440 ha         1 NQO       0.130000
     30 Cl          11.6780    -3.9610    21.6140 cl         1 NQO      -0.213000
@<TRIPOS>BOND
     1     1     2 ar  
     2     1    15 ar  
     3     2    12 1   
     4     2    13 ar  
     5     3     4 1   
     6     3    11 2   
     7     3    12 1   
     8     4     5 1   
     9     4    18 1   
    10     4    19 1   
    11     5     6 ar  
    12     5    10 ar  
    13     6     9 ar  
    14     6    20 1   
    15     7     8 ar  
    16     7     9 ar  
    17     7    21 1   
    18     8    10 ar  
    19     8    30 1   
    20     9    22 1   
    21    10    23 1   
    22    12    24 1   
    23    13    14 1   
    24    13    17 ar  
    25    14    25 1   
    26    14    26 1   
    27    14    27 1   
    28    15    16 ar  
    29    16    17 ar  
    30    16    28 1   
    31    17    29 1   
@<TRIPOS>SUBSTRUCTURE
     1 NQO         1 TEMP              0 ****  ****    0 ROOT
