@<TRIPOS>MOLECULE
NQP
   83    87     1     0     0
SMALL
No Charge or Current Charge


@<TRIPOS>ATOM
      1 C4         -51.2460   -14.5520     2.0570 c2         1 NQP      -0.225200
      2 C14        -55.1320    -3.2390    -4.7620 c          1 NQP       0.618700
      3 C5         -51.1720   -15.8690     2.3020 c2         1 NQP      -0.306000
      4 C6         -52.3930   -11.1230    -1.0180 ca         1 NQP      -0.179000
      5 C11        -53.4310    -6.2440    -3.1170 ca         1 NQP      -0.142000
      6 C7         -52.3260   -10.4610     0.2260 ca         1 NQP      -0.044000
      7 C8         -52.6950    -9.1120     0.2790 ca         1 NQP      -0.253000
      8 C9         -53.1460    -8.4820    -0.8820 ca         1 NQP       0.643900
      9 C10        -53.9370    -6.2220    -1.8060 ca         1 NQP       0.322000
     10 C12        -53.8270    -5.2830    -4.0590 ca         1 NQP      -0.047000
     11 C13        -54.7300    -4.2570    -3.7100 ca         1 NQP      -0.161600
     12 N1         -52.1380   -12.5540    -1.1330 n          1 NQP      -0.195400
     13 C3         -52.1230   -13.9090     1.0010 c3         1 NQP      -0.068200
     14 N3         -56.0220    -2.2640    -4.3700 ns         1 NQP      -0.500900
     15 C1         -52.5080   -13.2830    -2.2940 c          1 NQP       0.560000
     16 C15        -56.5600    -1.2000    -5.2280 c6         1 NQP       0.105700
     17 C16        -57.0400    -0.0070    -4.3680 c6         1 NQP      -0.091400
     18 C17        -57.6690     1.0940    -5.2540 c6         1 NQP       0.168300
     19 C19        -58.3640    -0.5810    -6.9180 c6         1 NQP       0.168300
     20 C2         -51.2970   -13.2370    -0.1170 c3         1 NQP       0.101000
     21 C20        -57.7490    -1.7190    -6.0710 c6         1 NQP      -0.091400
     22 C21        -55.2220    -4.2110    -2.3800 ca         1 NQP      -0.141000
     23 C22        -54.8250    -5.1820    -1.4290 ca         1 NQP       0.060100
     24 C24        -52.9370   -10.3920    -2.1130 ca         1 NQP       0.638900
     25 C25        -52.9020   -10.4020    -4.6790 c6         1 NQP       0.262500
     26 C26        -54.0490    -9.4750    -5.1560 c6         1 NQP      -0.130400
     27 C27        -53.6890    -8.8350    -6.5150 c6         1 NQP       0.155100
     28 C28        -51.3090    -9.0410    -6.1090 c6         1 NQP       0.155100
     29 C29        -51.5260    -9.6860    -4.7230 c6         1 NQP      -0.130400
     30 C30        -53.3500   -12.5140    -3.3590 c6         1 NQP       0.160500
     31 C31        -54.8530   -12.8430    -3.1540 c3         1 NQP      -0.115100
     32 N4         -58.7960     0.5580    -6.0650 n3         1 NQP      -0.720600
     33 N5         -53.2960    -9.1050    -2.0420 nb         1 NQP      -0.780000
     34 N6         -53.1890   -11.0240    -3.3490 nh         1 NQP      -0.790300
     35 O1         -52.1840   -14.4540    -2.4710 o          1 NQP      -0.546000
     36 O2         -54.6920    -3.2730    -5.9030 o          1 NQP      -0.605100
     37 O3         -55.2860    -5.1500    -0.1160 os         1 NQP      -0.369100
     38 O4         -52.4130    -8.1640    -6.4210 os         1 NQP      -0.444000
     39 H1         -50.6500   -13.8470     2.6440 ha         1 NQP       0.163000
     40 H2         -50.5210   -16.2690     3.0820 ha         1 NQP       0.164000
     41 H3         -51.7570   -16.5950     1.7350 ha         1 NQP       0.164000
     42 H4         -52.7180    -7.0040    -3.4120 ha         1 NQP       0.158000
     43 H5         -51.9950   -10.9590     1.1340 ha         1 NQP       0.124000
     44 H6         -52.6350    -8.5630     1.2140 ha         1 NQP       0.127000
     45 H7         -53.4210    -5.3390    -5.0680 ha         1 NQP       0.149000
     46 H9         -52.7800   -13.1660     1.4680 hc         1 NQP       0.054700
     47 H10        -52.7820   -14.6570     0.5460 hc         1 NQP       0.054700
     48 H11        -56.3390    -2.3060    -3.4120 hn         1 NQP       0.307500
     49 H12        -55.7630    -0.8520    -5.9040 h1         1 NQP       0.082700
     50 H13        -56.1960     0.4130    -3.8050 hc         1 NQP       0.051450
     51 H14        -57.7780    -0.3460    -3.6280 hc         1 NQP       0.051450
     52 H15        -56.8930     1.5150    -5.9110 h1         1 NQP       0.033200
     53 H16        -58.0210     1.9090    -4.6050 h1         1 NQP       0.033200
     54 H17        -59.8440     2.4100    -6.1770 h1         1 NQP       0.030367
     55 H18        -58.8010     2.0640    -7.5780 h1         1 NQP       0.030367
     56 H19        -60.3460     1.2010    -7.3780 h1         1 NQP       0.030367
     57 H20        -59.2210    -0.9830    -7.4780 h1         1 NQP       0.033200
     58 H21        -57.6230    -0.2440    -7.6590 h1         1 NQP       0.033200
     59 H22        -50.6680   -13.9960    -0.6010 h1         1 NQP       0.063700
     60 H23        -50.6050   -12.5100     0.3250 h1         1 NQP       0.063700
     61 H24        -58.5200    -2.1450    -5.4140 hc         1 NQP       0.051450
     62 H25        -57.4160    -2.5300    -6.7330 hc         1 NQP       0.051450
     63 H26        -55.9070    -3.4240    -2.0870 ha         1 NQP       0.112000
     64 H27        -56.4210    -4.3110     1.4260 h1         1 NQP       0.040700
     65 H28        -55.7530    -3.1410     0.2700 h1         1 NQP       0.040700
     66 H29        -57.1380    -4.1670    -0.1920 h1         1 NQP       0.040700
     67 H30        -52.8370   -11.1980    -5.4350 h1         1 NQP       0.044700
     68 H31        -54.2480    -8.6800    -4.4310 hc         1 NQP       0.064700
     69 H32        -54.9790   -10.0500    -5.2520 hc         1 NQP       0.064700
     70 H33        -54.4580    -8.1040    -6.8020 h1         1 NQP       0.044950
     71 H34        -53.6370    -9.6050    -7.2990 h1         1 NQP       0.044950
     72 H35        -51.2290    -9.8150    -6.8860 h1         1 NQP       0.044950
     73 H36        -50.3770    -8.4570    -6.1100 h1         1 NQP       0.044950
     74 H37        -50.7230   -10.4060    -4.5190 hc         1 NQP       0.064700
     75 H38        -51.4530    -8.9080    -3.9560 hc         1 NQP       0.064700
     76 H39        -53.0360   -12.9430    -4.3220 h1         1 NQP       0.088700
     77 H40        -55.0290   -13.9240    -3.1970 hc         1 NQP       0.051367
     78 H41        -55.2100   -12.4830    -2.1820 hc         1 NQP       0.051367
     79 H42        -55.4680   -12.3770    -3.9320 hc         1 NQP       0.051367
     80 N2         -53.5500    -7.1690    -0.8450 nu         1 NQP      -0.934900
     81 C18        -59.4810     1.6140    -6.8410 c3         1 NQP       0.154100
     82 C23        -56.1930    -4.1410     0.3660 c3         1 NQP       0.155900
     83 H8         -53.7880    -6.8720     0.0960 hn         1 NQP       0.513000
@<TRIPOS>BOND
     1     1     3 2   
     2     1    13 1   
     3     1    39 1   
     4     2    11 1   
     5     2    14 1   
     6     2    36 2   
     7     3    40 1   
     8     3    41 1   
     9     4     6 ar  
    10     4    12 1   
    11     4    24 ar  
    12     5     9 ar  
    13     5    10 ar  
    14     5    42 1   
    15     6     7 ar  
    16     6    43 1   
    17     7     8 ar  
    18     7    44 1   
    19     8    33 ar  
    20     8    80 1   
    21     9    23 ar  
    22     9    80 1   
    23    10    11 ar  
    24    10    45 1   
    25    11    22 ar  
    26    12    15 1   
    27    12    20 1   
    28    13    20 1   
    29    13    46 1   
    30    13    47 1   
    31    14    16 1   
    32    14    48 1   
    33    15    30 1   
    34    15    35 2   
    35    16    17 1   
    36    16    21 1   
    37    16    49 1   
    38    17    18 1   
    39    17    50 1   
    40    17    51 1   
    41    18    32 1   
    42    18    52 1   
    43    18    53 1   
    44    19    21 1   
    45    19    32 1   
    46    19    57 1   
    47    19    58 1   
    48    20    59 1   
    49    20    60 1   
    50    21    61 1   
    51    21    62 1   
    52    22    23 ar  
    53    22    63 1   
    54    23    37 1   
    55    24    33 ar  
    56    24    34 1   
    57    25    26 1   
    58    25    29 1   
    59    25    34 1   
    60    25    67 1   
    61    26    27 1   
    62    26    68 1   
    63    26    69 1   
    64    27    38 1   
    65    27    70 1   
    66    27    71 1   
    67    28    29 1   
    68    28    38 1   
    69    28    72 1   
    70    28    73 1   
    71    29    74 1   
    72    29    75 1   
    73    30    31 1   
    74    30    34 1   
    75    30    76 1   
    76    31    77 1   
    77    31    78 1   
    78    31    79 1   
    79    32    81 1   
    80    37    82 1   
    81    54    81 1   
    82    55    81 1   
    83    56    81 1   
    84    64    82 1   
    85    65    82 1   
    86    66    82 1   
    87    80    83 1   
@<TRIPOS>SUBSTRUCTURE
     1 NQP         1 TEMP              0 ****  ****    0 ROOT
