@<TRIPOS>MOLECULE
NQP
   83    87     1     0     0
SMALL
bcc


@<TRIPOS>ATOM
      1 C4         -51.5160   -14.4490     2.0310 c2         1 NQP      -0.175200
      2 C14        -55.2320    -3.3230    -4.6900 c          1 NQP       0.685700
      3 C5         -51.2070   -15.7170     2.2720 c2         1 NQP      -0.206000
      4 C6         -52.5950   -11.1990    -1.0290 ca         1 NQP      -0.151700
      5 C11        -53.9800    -6.5310    -3.1830 ca         1 NQP      -0.160000
      6 C7         -52.8410   -10.6080     0.1990 ca         1 NQP      -0.062000
      7 C8         -53.3030    -9.3080     0.2690 ca         1 NQP      -0.336300
      8 C9         -53.5040    -8.6160    -0.9270 ca         1 NQP       0.709200
      9 C10        -54.2160    -6.3770    -1.8210 ca         1 NQP       0.183600
     10 C12        -54.3040    -5.5310    -4.0870 ca         1 NQP      -0.065000
     11 C13        -54.8840    -4.3460    -3.6640 ca         1 NQP      -0.161600
     12 N1         -52.0010   -12.4660    -1.1660 n          1 NQP      -0.355000
     13 C3         -52.2280   -13.9620     0.8090 c3         1 NQP      -0.068200
     14 N3         -56.1240    -2.3820    -4.3260 ns         1 NQP      -0.567900
     15 C1         -52.0870   -13.1510    -2.3320 c          1 NQP       0.702500
     16 C15        -56.6220    -1.3630    -5.2270 c6         1 NQP       0.105700
     17 C16        -56.7790    -0.0290    -4.5080 c6         1 NQP      -0.091400
     18 C17        -57.3410     1.0170    -5.4600 c6         1 NQP       0.168300
     19 C19        -58.4770    -0.6490    -6.7510 c6         1 NQP       0.168300
     20 C2         -51.3140   -13.0750    -0.0380 c3         1 NQP       0.101000
     21 C20        -57.9520    -1.7640    -5.8590 c6         1 NQP      -0.091400
     22 C21        -55.1050    -4.1630    -2.2920 ca         1 NQP      -0.159000
     23 C22        -54.7820    -5.1520    -1.3850 ca         1 NQP       0.060100
     24 C24        -52.8900   -10.4420    -2.1800 ca         1 NQP       0.704200
     25 C25        -52.6950   -10.3330    -4.6640 c6         1 NQP       0.262500
     26 C26        -54.0540    -9.7890    -5.1140 c6         1 NQP      -0.130400
     27 C27        -53.9070    -9.0090    -6.4120 c6         1 NQP       0.131900
     28 C28        -51.6560    -8.5240    -6.0430 c6         1 NQP       0.131900
     29 C29        -51.6150    -9.2520    -4.7080 c6         1 NQP      -0.130400
     30 C30        -52.9120   -12.4840    -3.4150 c6         1 NQP       0.160500
     31 C31        -54.3770   -12.9100    -3.2810 c3         1 NQP      -0.115100
     32 N4         -58.6110     0.5940    -6.0170 n3         1 NQP      -0.720600
     33 N5         -53.3140    -9.1860    -2.1090 nb         1 NQP      -0.780000
     34 N6         -52.7110   -11.0470    -3.3930 nh         1 NQP      -0.790300
     35 O1         -51.5770   -14.2460    -2.4990 o          1 NQP      -0.621500
     36 O2         -54.7250    -3.3560    -5.8060 o          1 NQP      -0.605100
     37 O3         -54.9580    -5.0510    -0.0510 os         1 NQP      -0.345900
     38 O4         -52.9340    -7.9930    -6.3190 os         1 NQP      -0.397600
     39 H1         -51.2270   -13.6870     2.7510 ha         1 NQP       0.113000
     40 H2         -50.6790   -16.0110     3.1700 ha         1 NQP       0.114000
     41 H3         -51.4740   -16.5090     1.5830 ha         1 NQP       0.114000
     42 H4         -53.5440    -7.4430    -3.5450 ha         1 NQP       0.176000
     43 H5         -52.6550   -11.1390     1.1230 ha         1 NQP       0.142000
     44 H6         -53.4880    -8.8420     1.2280 ha         1 NQP       0.145000
     45 H7         -54.1030    -5.7000    -5.1350 ha         1 NQP       0.167000
     46 H9         -53.1180   -13.3970     1.1050 hc         1 NQP       0.054700
     47 H10        -52.5740   -14.8070     0.2100 hc         1 NQP       0.054700
     48 H11        -56.6260    -2.4960    -3.4600 hn         1 NQP       0.307500
     49 H12        -55.8800    -1.2430    -6.0190 h1         1 NQP       0.082700
     50 H13        -55.8160     0.3080    -4.1210 hc         1 NQP       0.051450
     51 H14        -57.4550    -0.1420    -3.6550 hc         1 NQP       0.051450
     52 H15        -56.5990     1.2200    -6.2540 h1         1 NQP       0.033200
     53 H16        -57.4880     1.9580    -4.9250 h1         1 NQP       0.033200
     54 H17        -59.3350     2.5390    -6.2490 h1         1 NQP       0.030367
     55 H18        -58.6040     1.8850    -7.7210 h1         1 NQP       0.030367
     56 H19        -60.1880     1.3100    -7.1830 h1         1 NQP       0.030367
     57 H20        -59.4550    -0.9290    -7.1500 h1         1 NQP       0.033200
     58 H21        -57.8030    -0.5360    -7.6200 h1         1 NQP       0.033200
     59 H22        -50.4830   -13.6670    -0.4180 h1         1 NQP       0.063700
     60 H23        -50.8760   -12.2780     0.5640 h1         1 NQP       0.063700
     61 H24        -58.6800    -1.9760    -5.0700 hc         1 NQP       0.051450
     62 H25        -57.8310    -2.6760    -6.4480 hc         1 NQP       0.051450
     63 H26        -55.5080    -3.2290    -1.9270 ha         1 NQP       0.130000
     64 H27        -55.5930    -4.0140     1.5540 h1         1 NQP       0.040700
     65 H28        -54.9220    -2.9930     0.2700 h1         1 NQP       0.040700
     66 H29        -56.5420    -3.7050     0.0870 h1         1 NQP       0.040700
     67 H30        -52.3990   -11.0870    -5.4020 h1         1 NQP       0.044700
     68 H31        -54.4900    -9.1550    -4.3430 hc         1 NQP       0.064700
     69 H32        -54.7530   -10.6110    -5.2860 hc         1 NQP       0.064700
     70 H33        -54.8500    -8.5270    -6.6750 h1         1 NQP       0.044950
     71 H34        -53.6540    -9.7000    -7.2310 h1         1 NQP       0.044950
     72 H35        -51.3490    -9.2080    -6.8490 h1         1 NQP       0.044950
     73 H36        -50.9540    -7.6890    -6.0420 h1         1 NQP       0.044950
     74 H37        -50.6320    -9.7110    -4.5820 hc         1 NQP       0.064700
     75 H38        -51.7410    -8.5360    -3.8970 hc         1 NQP       0.064700
     76 H39        -52.5240   -12.8560    -4.3630 h1         1 NQP       0.088700
     77 H40        -54.4640   -13.9950    -3.3280 hc         1 NQP       0.051367
     78 H41        -54.8130   -12.5730    -2.3400 hc         1 NQP       0.051367
     79 H42        -54.9660   -12.4940    -4.0970 hc         1 NQP       0.051367
     80 N2         -53.9310    -7.3080    -0.8470 nu         1 NQP      -0.741300
     81 C18        -59.2040     1.6280    -6.8340 c3         1 NQP       0.154100
     82 C23        -55.5350    -3.8730     0.4780 c3         1 NQP       0.132700
     83 H8         -54.1010    -6.9930     0.0950 hn         1 NQP       0.457800
@<TRIPOS>BOND
     1     1     3 2   
     2     1    13 1   
     3     1    39 1   
     4     2    11 1   
     5     2    14 1   
     6     2    36 2   
     7     3    40 1   
     8     3    41 1   
     9     4     6 ar  
    10     4    12 1   
    11     4    24 ar  
    12     5     9 ar  
    13     5    10 ar  
    14     5    42 1   
    15     6     7 ar  
    16     6    43 1   
    17     7     8 ar  
    18     7    44 1   
    19     8    33 ar  
    20     8    80 1   
    21     9    23 ar  
    22     9    80 1   
    23    10    11 ar  
    24    10    45 1   
    25    11    22 ar  
    26    12    15 1   
    27    12    20 1   
    28    13    20 1   
    29    13    46 1   
    30    13    47 1   
    31    14    16 1   
    32    14    48 1   
    33    15    30 1   
    34    15    35 2   
    35    16    17 1   
    36    16    21 1   
    37    16    49 1   
    38    17    18 1   
    39    17    50 1   
    40    17    51 1   
    41    18    32 1   
    42    18    52 1   
    43    18    53 1   
    44    19    21 1   
    45    19    32 1   
    46    19    57 1   
    47    19    58 1   
    48    20    59 1   
    49    20    60 1   
    50    21    61 1   
    51    21    62 1   
    52    22    23 ar  
    53    22    63 1   
    54    23    37 1   
    55    24    33 ar  
    56    24    34 1   
    57    25    26 1   
    58    25    29 1   
    59    25    34 1   
    60    25    67 1   
    61    26    27 1   
    62    26    68 1   
    63    26    69 1   
    64    27    38 1   
    65    27    70 1   
    66    27    71 1   
    67    28    29 1   
    68    28    38 1   
    69    28    72 1   
    70    28    73 1   
    71    29    74 1   
    72    29    75 1   
    73    30    31 1   
    74    30    34 1   
    75    30    76 1   
    76    31    77 1   
    77    31    78 1   
    78    31    79 1   
    79    32    81 1   
    80    37    82 1   
    81    54    81 1   
    82    55    81 1   
    83    56    81 1   
    84    64    82 1   
    85    65    82 1   
    86    66    82 1   
    87    80    83 1   
@<TRIPOS>SUBSTRUCTURE
     1 NQP         1 TEMP              0 ****  ****    0 ROOT
