@<TRIPOS>MOLECULE
NQQ
   47    49     1     0     0
SMALL
abcg2


@<TRIPOS>ATOM
      1 CL           5.0700    67.7810   177.2530 cl         1 NQQ      -0.146000
      2 C6          12.1980    72.5840   183.4130 c3         1 NQQ      -0.105100
      3 C5           9.7950    72.7810   184.0600 c3         1 NQQ      -0.105100
      4 C8           9.6380    66.5720   184.9720 ca         1 NQQ       0.008600
      5 C4          11.1510    72.1930   184.4490 c3         1 NQQ       0.190000
      6 N3           7.4090    66.8820   177.9050 nb         1 NQQ      -0.698000
      7 N1          10.0870    68.6710   185.5740 n          1 NQQ      -0.291000
      8 N4           3.8570    68.6420   180.5780 n1         1 NQQ      -0.456000
      9 C16          6.0700    67.6450   179.7390 ca         1 NQQ      -0.178000
     10 C15          6.3140    67.3920   178.3870 ca         1 NQQ       0.519000
     11 C14          8.3690    66.5880   178.7940 ca         1 NQQ       0.404900
     12 C13          8.2680    66.7830   180.1470 ca         1 NQQ      -0.249000
     13 C12          7.0840    67.3320   180.6760 ca         1 NQQ       0.423000
     14 N2           6.9090    67.5640   181.9870 nu         1 NQQ      -0.979000
     15 C11          7.8460    67.2330   182.9960 ca         1 NQQ       0.255000
     16 C10          8.1220    65.8980   183.2770 ca         1 NQQ      -0.112000
     17 C9           9.0360    65.5480   184.2670 ca         1 NQQ      -0.101000
     18 N           10.5590    66.5610   185.9920 n          1 NQQ      -0.290000
     19 C           11.1280    65.3770   186.5840 c3         1 NQQ       0.103300
     20 C18          8.4580    68.2670   183.7040 ca         1 NQQ      -0.118000
     21 C7           9.3450    67.9130   184.6990 ca         1 NQQ       0.014600
     22 C1          10.8570    67.8510   186.3680 c          1 NQQ       0.595000
     23 O           11.6390    68.2020   187.2320 o          1 NQQ      -0.549000
     24 C3          11.0940    70.6590   184.5300 c3         1 NQQ      -0.129400
     25 O1          11.5930    72.7400   185.6860 oh         1 NQQ      -0.655000
     26 H1          13.1800    72.1840   183.6740 hc         1 NQQ       0.044033
     27 H2          11.9290    72.1920   182.4320 hc         1 NQQ       0.044033
     28 H3          12.2810    73.6690   183.3300 hc         1 NQQ       0.044033
     29 H4           9.0370    72.6170   184.8310 hc         1 NQQ       0.044033
     30 H5           9.8730    73.8580   183.9050 hc         1 NQQ       0.044033
     31 H6           9.4260    72.3350   183.1360 hc         1 NQQ       0.044033
     32 H7          10.4660    70.4150   186.5920 h1         1 NQQ       0.064200
     33 H8           9.1310    70.4890   185.4600 h1         1 NQQ       0.064200
     34 H9           9.2800    66.1710   178.3840 h4         1 NQQ       0.027100
     35 H10          9.0970    66.5250   180.7880 ha         1 NQQ       0.140000
     36 H11          6.0810    68.0610   182.2830 hn         1 NQQ       0.515000
     37 H12          7.6170    65.1200   182.7190 ha         1 NQQ       0.131000
     38 H13          9.2500    64.5090   184.4780 ha         1 NQQ       0.131000
     39 H14         11.8440    65.6680   187.3470 h1         1 NQQ       0.054033
     40 H15         10.3520    64.7680   187.0480 h1         1 NQQ       0.054033
     41 H16         11.6430    64.7810   185.8320 h1         1 NQQ       0.054033
     42 H17          8.2410    69.3000   183.4650 ha         1 NQQ       0.133000
     43 H18         10.8020    70.2680   183.5510 hc         1 NQQ       0.061200
     44 H19         12.0990    70.2790   184.7320 hc         1 NQQ       0.061200
     45 H20         10.8610    72.7370   186.3100 ho         1 NQQ       0.440000
     46 C2          10.1480    70.1150   185.5950 c3         1 NQQ       0.118000
     47 C17          4.8420    68.1960   180.1750 cg         1 NQQ       0.337000
@<TRIPOS>BOND
     1     1    10 1   
     2     2     5 1   
     3     2    26 1   
     4     2    27 1   
     5     2    28 1   
     6     3     5 1   
     7     3    29 1   
     8     3    30 1   
     9     3    31 1   
    10     4    17 ar  
    11     4    18 1   
    12     4    21 ar  
    13     5    24 1   
    14     5    25 1   
    15     6    10 ar  
    16     6    11 ar  
    17     7    21 1   
    18     7    22 1   
    19     7    46 1   
    20     8    47 3   
    21     9    10 ar  
    22     9    13 ar  
    23     9    47 1   
    24    11    12 ar  
    25    11    34 1   
    26    12    13 ar  
    27    12    35 1   
    28    13    14 1   
    29    14    15 1   
    30    14    36 1   
    31    15    16 ar  
    32    15    20 ar  
    33    16    17 ar  
    34    16    37 1   
    35    17    38 1   
    36    18    19 1   
    37    18    22 1   
    38    19    39 1   
    39    19    40 1   
    40    19    41 1   
    41    20    21 ar  
    42    20    42 1   
    43    22    23 2   
    44    24    43 1   
    45    24    44 1   
    46    24    46 1   
    47    25    45 1   
    48    32    46 1   
    49    33    46 1   
@<TRIPOS>SUBSTRUCTURE
     1 NQQ         1 TEMP              0 ****  ****    0 ROOT
