@<TRIPOS>MOLECULE
NQQ
   47    49     1     0     0
SMALL
No Charge or Current Charge


@<TRIPOS>ATOM
      1 Cl           4.1590    67.0200   177.4730 cl         1 NQQ      -0.146000
      2 C6          12.3790    72.8030   183.9540 c3         1 NQQ      -0.105100
      3 C5           9.8950    73.0410   184.4140 c3         1 NQQ      -0.105100
      4 C8           9.8770    66.6490   184.7230 ca         1 NQQ       0.008600
      5 C4          11.2050    72.3380   184.8450 c3         1 NQQ       0.190000
      6 N3           6.5310    65.9290   177.7970 nb         1 NQQ      -0.698000
      7 N1           9.9400    68.7150   185.6450 n          1 NQQ      -0.291000
      8 N4           4.1000    68.9850   180.6370 n1         1 NQQ      -0.456000
      9 C16          5.8800    67.3910   179.6180 ca         1 NQQ      -0.178000
     10 C15          5.6490    66.7640   178.3840 ca         1 NQQ       0.519000
     11 C14          7.6930    65.6930   178.4370 ca         1 NQQ       0.404900
     12 C13          8.0070    66.2690   179.6680 ca         1 NQQ      -0.249000
     13 C12          7.0870    67.1220   180.2800 ca         1 NQQ       0.423000
     14 N2           7.3980    67.7180   181.5080 nu         1 NQQ      -0.979000
     15 C11          8.2350    67.3530   182.5670 ca         1 NQQ       0.255000
     16 C10          8.5410    65.9930   182.8270 ca         1 NQQ      -0.112000
     17 C9           9.3260    65.6270   183.9410 ca         1 NQQ      -0.101000
     18 N           10.4390    66.5790   186.0290 n          1 NQQ      -0.290000
     19 C           11.1340    65.4030   186.5780 c3         1 NQQ       0.103300
     20 C18          8.6960    68.3520   183.4480 ca         1 NQQ      -0.118000
     21 C7           9.5590    67.9800   184.4870 ca         1 NQQ       0.014600
     22 C1          10.5130    67.8590   186.5960 c          1 NQQ       0.595000
     23 O           11.0100    68.1660   187.6710 o          1 NQQ      -0.549000
     24 C3          11.0810    70.7910   184.8040 c3         1 NQQ      -0.129400
     25 O1          11.4970    72.7300   186.1860 oh         1 NQQ      -0.655000
     26 H1          13.3220    72.3450   184.2770 hc         1 NQQ       0.044033
     27 H2          12.2070    72.5200   182.9080 hc         1 NQQ       0.044033
     28 H3          12.5000    73.8920   183.9940 hc         1 NQQ       0.044033
     29 H4           9.0760    72.8280   185.1100 hc         1 NQQ       0.044033
     30 H5          10.0270    74.1290   184.3800 hc         1 NQQ       0.044033
     31 H6           9.5890    72.7080   183.4140 hc         1 NQQ       0.044033
     32 H7          10.1860    70.4810   186.7640 h1         1 NQQ       0.064200
     33 H8           9.0090    70.5760   185.4460 h1         1 NQQ       0.064200
     34 H9           8.3960    65.0250   177.9400 h4         1 NQQ       0.027100
     35 H10          8.9690    66.0620   180.1230 ha         1 NQQ       0.140000
     36 H11          6.9120    68.6040   181.6590 hn         1 NQQ       0.515000
     37 H12          8.1160    65.2120   182.2030 ha         1 NQQ       0.131000
     38 H13          9.4850    64.5810   184.1920 ha         1 NQQ       0.131000
     39 H14         12.0200    65.7180   187.1430 h1         1 NQQ       0.054033
     40 H15         10.4560    64.8550   187.2450 h1         1 NQQ       0.054033
     41 H16         11.4510    64.7410   185.7630 h1         1 NQQ       0.054033
     42 H17          8.3900    69.3870   183.3260 ha         1 NQQ       0.133000
     43 H18         10.8830    70.4790   183.7710 hc         1 NQQ       0.061200
     44 H19         12.0470    70.3490   185.0790 hc         1 NQQ       0.061200
     45 H20         11.6160    73.7040   186.1790 ho         1 NQQ       0.440000
     46 C2           9.9950    70.1850   185.7240 c3         1 NQQ       0.118000
     47 C17          4.8940    68.2640   180.1760 cg         1 NQQ       0.337000
@<TRIPOS>BOND
     1     1    10 1   
     2     2     5 1   
     3     2    26 1   
     4     2    27 1   
     5     2    28 1   
     6     3     5 1   
     7     3    29 1   
     8     3    30 1   
     9     3    31 1   
    10     4    17 ar  
    11     4    18 1   
    12     4    21 ar  
    13     5    24 1   
    14     5    25 1   
    15     6    10 ar  
    16     6    11 ar  
    17     7    21 1   
    18     7    22 1   
    19     7    46 1   
    20     8    47 3   
    21     9    10 ar  
    22     9    13 ar  
    23     9    47 1   
    24    11    12 ar  
    25    11    34 1   
    26    12    13 ar  
    27    12    35 1   
    28    13    14 1   
    29    14    15 1   
    30    14    36 1   
    31    15    16 ar  
    32    15    20 ar  
    33    16    17 ar  
    34    16    37 1   
    35    17    38 1   
    36    18    19 1   
    37    18    22 1   
    38    19    39 1   
    39    19    40 1   
    40    19    41 1   
    41    20    21 ar  
    42    20    42 1   
    43    22    23 2   
    44    24    43 1   
    45    24    44 1   
    46    24    46 1   
    47    25    45 1   
    48    32    46 1   
    49    33    46 1   
@<TRIPOS>SUBSTRUCTURE
     1 NQQ         1 TEMP              0 ****  ****    0 ROOT
