@<TRIPOS>MOLECULE
NQR
   40    43     1     0     0
SMALL
abcg2


@<TRIPOS>ATOM
      1 C1          33.8050   -16.2420    16.1130 ca         1 NQR      -0.075000
      2 C12         37.7700   -17.5120    14.8750 cc         1 NQR      -0.072100
      3 C13         37.4310   -18.0770    13.6910 cd         1 NQR      -0.141200
      4 C15         39.0960   -17.4970    15.5390 c          1 NQR       0.648300
      5 C18         40.6090   -16.5610    17.1820 c6         1 NQR       0.097000
      6 C19         41.6900   -15.6310    16.6500 c6         1 NQR      -0.102900
      7 C2          32.4660   -15.9690    16.2300 ca         1 NQR      -0.114000
      8 C20         41.1650   -14.2020    16.5650 c6         1 NQR      -0.074400
      9 C21         39.8660   -14.1560    15.7690 c6         1 NQR      -0.102900
     10 C22         38.8350   -15.1400    16.3140 c6         1 NQR       0.097000
     11 C3          31.5720   -16.3490    15.2140 ca         1 NQR      -0.096000
     12 C4          32.0240   -16.9980    14.0920 ca         1 NQR      -0.086000
     13 C5          33.3920   -17.2960    13.9350 ca         1 NQR       0.291000
     14 C6          34.2820   -16.9060    14.9690 ca         1 NQR      -0.071000
     15 C7          35.6220   -17.2500    14.7130 ca         1 NQR       0.102100
     16 C8          36.0200   -17.9000    13.5670 ca         1 NQR      -0.197800
     17 C9          35.0360   -18.2430    12.5990 ca         1 NQR       0.436300
     18 N10         33.7830   -17.9430    12.7970 nb         1 NQR      -0.688000
     19 N17         39.3950   -16.4850    16.3780 n          1 NQR      -0.392800
     20 O11         36.6690   -17.0120    15.5080 os         1 NQR      -0.143200
     21 O16         39.8400   -18.4430    15.3150 o          1 NQR      -0.585100
     22 H1          34.4950   -15.9500    16.8950 ha         1 NQR       0.124000
     23 H2          38.1050   -18.5520    12.9960 ha         1 NQR       0.229000
     24 H3          34.5670   -19.1530    10.7220 hc         1 NQR       0.057033
     25 H4          36.1460   -18.3550    10.7740 hc         1 NQR       0.057033
     26 H5          35.9270   -19.8980    11.5760 hc         1 NQR       0.057033
     27 H6          40.3410   -16.2650    18.2010 h1         1 NQR       0.059950
     28 H7          40.9540   -17.5910    17.2220 h1         1 NQR       0.059950
     29 H8          42.5610   -15.6840    17.3060 hc         1 NQR       0.051200
     30 H9          42.0120   -15.9740    15.6620 hc         1 NQR       0.051200
     31 H10         32.0940   -15.4590    17.1090 ha         1 NQR       0.117000
     32 H11         40.9880   -13.8200    17.5760 hc         1 NQR       0.043200
     33 H12         41.9110   -13.5470    16.1100 hc         1 NQR       0.043200
     34 H13         40.0620   -14.3960    14.7200 hc         1 NQR       0.051200
     35 H14         39.4340   -13.1530    15.7890 hc         1 NQR       0.051200
     36 H15         37.9460   -15.1140    15.6930 h1         1 NQR       0.059950
     37 H16         38.5340   -14.8460    17.3240 h1         1 NQR       0.059950
     38 H17         30.5180   -16.1270    15.3190 ha         1 NQR       0.118000
     39 H18         31.3390   -17.2920    13.3060 ha         1 NQR       0.133000
     40 C14         35.4340   -18.9520    11.3460 c3         1 NQR      -0.150400
@<TRIPOS>BOND
     1     1     7 ar  
     2     1    14 ar  
     3     1    22 1   
     4     2     3 2   
     5     2     4 1   
     6     2    20 1   
     7     3    16 1   
     8     3    23 1   
     9     4    19 1   
    10     4    21 2   
    11     5     6 1   
    12     5    19 1   
    13     5    27 1   
    14     5    28 1   
    15     6     8 1   
    16     6    29 1   
    17     6    30 1   
    18     7    11 ar  
    19     7    31 1   
    20     8     9 1   
    21     8    32 1   
    22     8    33 1   
    23     9    10 1   
    24     9    34 1   
    25     9    35 1   
    26    10    19 1   
    27    10    36 1   
    28    10    37 1   
    29    11    12 ar  
    30    11    38 1   
    31    12    13 ar  
    32    12    39 1   
    33    13    14 ar  
    34    13    18 ar  
    35    14    15 ar  
    36    15    16 ar  
    37    15    20 1   
    38    16    17 ar  
    39    17    18 ar  
    40    17    40 1   
    41    24    40 1   
    42    25    40 1   
    43    26    40 1   
@<TRIPOS>SUBSTRUCTURE
     1 NQR         1 TEMP              0 ****  ****    0 ROOT
