@<TRIPOS>MOLECULE
NQR
   40    43     1     0     0
SMALL
No Charge or Current Charge


@<TRIPOS>ATOM
      1 C1          34.0730   -15.5400    15.4000 ca         1 NQR      -0.075000
      2 C12         37.8320   -17.4420    14.4510 cc         1 NQR      -0.072100
      3 C13         37.2820   -18.4150    13.6310 cd         1 NQR      -0.141200
      4 C15         39.2990   -17.3380    14.7640 c          1 NQR       0.648300
      5 C18         41.1780   -16.4180    16.1480 c6         1 NQR       0.097000
      6 C19         41.8000   -15.1590    16.7910 c6         1 NQR      -0.102900
      7 C2          32.7500   -15.0980    15.5550 ca         1 NQR      -0.114000
      8 C20         40.8080   -14.4620    17.7300 c6         1 NQR      -0.074400
      9 C21         39.5880   -14.0450    16.9000 c6         1 NQR      -0.102900
     10 C22         38.8980   -15.2530    16.2230 c6         1 NQR       0.097000
     11 C3          31.7060   -15.7660    14.8940 ca         1 NQR      -0.096000
     12 C4          31.9830   -16.8770    14.0750 ca         1 NQR      -0.086000
     13 C5          33.3010   -17.3400    13.9020 ca         1 NQR       0.291000
     14 C6          34.3460   -16.6510    14.5800 ca         1 NQR      -0.071000
     15 C7          35.6500   -17.1270    14.3950 ca         1 NQR       0.102100
     16 C8          35.8680   -18.2050    13.5930 ca         1 NQR      -0.197800
     17 C9          34.8120   -18.8560    12.9440 ca         1 NQR       0.436300
     18 N10         33.5370   -18.4200    13.1020 nb         1 NQR      -0.688000
     19 N17         39.7900   -16.2810    15.5910 n          1 NQR      -0.392800
     20 O11         36.8100   -16.6230    14.9490 os         1 NQR      -0.143200
     21 O16         40.0830   -18.1690    14.3150 o          1 NQR      -0.585100
     22 H1          34.8800   -15.0210    15.9130 ha         1 NQR       0.124000
     23 H2          37.8390   -19.1960    13.1160 ha         1 NQR       0.229000
     24 H3          34.1000   -20.4330    11.6240 hc         1 NQR       0.057033
     25 H4          35.7040   -19.8010    11.2180 hc         1 NQR       0.057033
     26 H5          35.5020   -20.8770    12.6120 hc         1 NQR       0.057033
     27 H6          41.1550   -17.2140    16.9050 h1         1 NQR       0.059950
     28 H7          41.8600   -16.7590    15.3550 h1         1 NQR       0.059950
     29 H8          42.7100   -15.4350    17.3400 hc         1 NQR       0.051200
     30 H9          42.1140   -14.4620    16.0020 hc         1 NQR       0.051200
     31 H10         32.5330   -14.2400    16.1880 ha         1 NQR       0.117000
     32 H11         40.5100   -15.1340    18.5470 hc         1 NQR       0.043200
     33 H12         41.2750   -13.5800    18.1890 hc         1 NQR       0.043200
     34 H13         39.9020   -13.3300    16.1270 hc         1 NQR       0.051200
     35 H14         38.8640   -13.5130    17.5330 hc         1 NQR       0.051200
     36 H15         38.2360   -14.8310    15.4570 h1         1 NQR       0.059950
     37 H16         38.2690   -15.7590    16.9700 h1         1 NQR       0.059950
     38 H17         30.6800   -15.4240    15.0140 ha         1 NQR       0.118000
     39 H18         31.1680   -17.3860    13.5680 ha         1 NQR       0.133000
     40 C14         35.0390   -20.0590    12.0490 c3         1 NQR      -0.150400
@<TRIPOS>BOND
     1     1     7 ar  
     2     1    14 ar  
     3     1    22 1   
     4     2     3 2   
     5     2     4 1   
     6     2    20 1   
     7     3    16 1   
     8     3    23 1   
     9     4    19 1   
    10     4    21 2   
    11     5     6 1   
    12     5    19 1   
    13     5    27 1   
    14     5    28 1   
    15     6     8 1   
    16     6    29 1   
    17     6    30 1   
    18     7    11 ar  
    19     7    31 1   
    20     8     9 1   
    21     8    32 1   
    22     8    33 1   
    23     9    10 1   
    24     9    34 1   
    25     9    35 1   
    26    10    19 1   
    27    10    36 1   
    28    10    37 1   
    29    11    12 ar  
    30    11    38 1   
    31    12    13 ar  
    32    12    39 1   
    33    13    14 ar  
    34    13    18 ar  
    35    14    15 ar  
    36    15    16 ar  
    37    15    20 1   
    38    16    17 ar  
    39    17    18 ar  
    40    17    40 1   
    41    24    40 1   
    42    25    40 1   
    43    26    40 1   
@<TRIPOS>SUBSTRUCTURE
     1 NQR         1 TEMP              0 ****  ****    0 ROOT
