@<TRIPOS>MOLECULE
NQS
   26    27     1     0     0
SMALL
No Charge or Current Charge


@<TRIPOS>ATOM
      1 C1          -4.4420     0.6150    -0.3730 ca         1 NQS      -0.094000
      2 C2          -4.2590    -0.7670    -0.5220 ca         1 NQS      -0.100000
      3 C3          -2.9960    -1.3360    -0.2990 ca         1 NQS      -0.063000
      4 C4          -1.8980    -0.5280     0.0750 ca         1 NQS      -0.134600
      5 C5          -2.0810     0.8730     0.2260 ca         1 NQS      -0.128600
      6 C6          -3.3610     1.4300    -0.0010 ca         1 NQS      -0.067000
      7 C7          -0.9350     1.7780     0.6280 c          1 NQS       0.578900
      8 C8           0.3660     1.1280     0.8430 cc         1 NQS      -0.281200
      9 C9           0.5570    -0.2340     0.6990 cd         1 NQS      -0.033600
     10 C10         -0.5440    -1.1600     0.3090 c          1 NQS       0.588900
     11 O1          -0.3680    -2.3670     0.1810 o          1 NQS      -0.489100
     12 O2          -1.0760     2.9860     0.7690 o          1 NQS      -0.509100
     13 S6           2.2220    -0.7720     1.0010 ss         1 NQS      -0.197600
     14 C11          3.2340     0.2620    -0.1540 c3         1 NQS       0.007600
     15 C12          4.7130    -0.1640    -0.1080 c3         1 NQS       0.174600
     16 O15          5.4790     0.6440    -1.0110 oh         1 NQS      -0.657000
     17 H1          -5.4210     1.0560    -0.5450 ha         1 NQS       0.122000
     18 H2          -5.0970    -1.3990    -0.8100 ha         1 NQS       0.122000
     19 H3          -2.8740    -2.4110    -0.4200 ha         1 NQS       0.138000
     20 H6          -3.5230     2.5010     0.1090 ha         1 NQS       0.139000
     21 H4           1.1600     1.8000     1.1440 ha         1 NQS       0.208000
     22 H11          2.8480     0.1380    -1.1730 h1         1 NQS       0.081700
     23 H111         3.1520     1.3190     0.1280 h1         1 NQS       0.081700
     24 H12          5.0890    -0.0520     0.9180 h1         1 NQS       0.031700
     25 H121         4.7910    -1.2240    -0.3830 h1         1 NQS       0.031700
     26 H15          6.4120     0.3380    -0.9490 ho         1 NQS       0.449000
@<TRIPOS>BOND
     1     1     2 ar  
     2     1     6 ar  
     3     1    17 1   
     4     2     3 ar  
     5     2    18 1   
     6     3     4 ar  
     7     3    19 1   
     8     4     5 ar  
     9     4    10 1   
    10     5     6 ar  
    11     5     7 1   
    12     6    20 1   
    13     7     8 1   
    14     7    12 2   
    15     8     9 2   
    16     8    21 1   
    17     9    10 1   
    18     9    13 1   
    19    10    11 2   
    20    13    14 1   
    21    14    15 1   
    22    14    22 1   
    23    14    23 1   
    24    15    16 1   
    25    15    24 1   
    26    15    25 1   
    27    16    26 1   
@<TRIPOS>SUBSTRUCTURE
     1 NQS         1 TEMP              0 ****  ****    0 ROOT
