@<TRIPOS>MOLECULE
NQS
   26    27     1     0     0
SMALL
abcg2


@<TRIPOS>ATOM
      1 C1          -4.4880     0.5550    -0.0030 ca         1 NQS      -0.094000
      2 C2          -4.3090    -0.8230    -0.0070 ca         1 NQS      -0.100000
      3 C3          -3.0300    -1.3580    -0.0050 ca         1 NQS      -0.063000
      4 C4          -1.9250    -0.5140     0.0020 ca         1 NQS      -0.134600
      5 C5          -2.1050     0.8720     0.0070 ca         1 NQS      -0.128600
      6 C6          -3.3890     1.4010     0.0040 ca         1 NQS      -0.067000
      7 C7          -0.9300     1.7790     0.0150 c          1 NQS       0.578900
      8 C8           0.4050     1.1790     0.0180 cc         1 NQS      -0.281200
      9 C9           0.5920    -0.1530     0.0130 cd         1 NQS      -0.033600
     10 C10         -0.5680    -1.0930     0.0040 c          1 NQS       0.588900
     11 O1          -0.3670    -2.2880    -0.0010 o          1 NQS      -0.489100
     12 O2          -1.0630     2.9890     0.0190 o          1 NQS      -0.509100
     13 S6           2.1040    -0.9970     0.0140 ss         1 NQS      -0.197600
     14 C11          3.3040     0.3560     0.0240 c3         1 NQS       0.007600
     15 C12          4.6960    -0.2570     0.0220 c3         1 NQS       0.174600
     16 O15          5.6150     0.8070     0.0350 oh         1 NQS      -0.657000
     17 H1          -5.4870     0.9700    -0.0050 ha         1 NQS       0.122000
     18 H2          -5.1660    -1.4820    -0.0130 ha         1 NQS       0.122000
     19 H3          -2.8930    -2.4310    -0.0080 ha         1 NQS       0.138000
     20 H6          -3.5300     2.4730     0.0080 ha         1 NQS       0.139000
     21 H4           1.2300     1.8780     0.0240 ha         1 NQS       0.208000
     22 H11          3.1620     0.9790    -0.8610 h1         1 NQS       0.081700
     23 H111         3.1600     0.9680     0.9160 h1         1 NQS       0.081700
     24 H12          4.8110    -0.9060     0.8980 h1         1 NQS       0.031700
     25 H121         4.8160    -0.8880    -0.8670 h1         1 NQS       0.031700
     26 H15          6.5020     0.4370     0.0300 ho         1 NQS       0.449000
@<TRIPOS>BOND
     1     1     2 ar  
     2     1     6 ar  
     3     1    17 1   
     4     2     3 ar  
     5     2    18 1   
     6     3     4 ar  
     7     3    19 1   
     8     4     5 ar  
     9     4    10 1   
    10     5     6 ar  
    11     5     7 1   
    12     6    20 1   
    13     7     8 1   
    14     7    12 2   
    15     8     9 2   
    16     8    21 1   
    17     9    10 1   
    18     9    13 1   
    19    10    11 2   
    20    13    14 1   
    21    14    15 1   
    22    14    22 1   
    23    14    23 1   
    24    15    16 1   
    25    15    24 1   
    26    15    25 1   
    27    16    26 1   
@<TRIPOS>SUBSTRUCTURE
     1 NQS         1 TEMP              0 ****  ****    0 ROOT
