@<TRIPOS>MOLECULE
NQT
   58    61     1     0     0
SMALL
bcc


@<TRIPOS>ATOM
      1 C11         22.0390   -12.5620    17.0360 c3         1 NQT      -0.126400
      2 C14         22.8760   -14.6000    15.7950 c3         1 NQT      -0.108100
      3 C15         22.6030   -10.9140    19.9370 c          1 NQT       0.804500
      4 C20         27.7970   -10.1920    13.9530 ca         1 NQT      -0.316200
      5 C21         27.4220   -10.5370    12.6780 ca         1 NQT       0.496200
      6 CL          29.4440    -9.9140    14.3690 cl         1 NQT      -0.080400
      7 N6          26.1550   -10.7470    12.3260 nb         1 NQT      -0.703000
      8 C5          25.2790   -10.6100    13.2990 ca         1 NQT       0.818500
      9 N1          23.9310   -10.8090    12.9820 na         1 NQT       0.047600
     10 N           23.6080   -11.6180    11.9580 nc         1 NQT      -0.474800
     11 C3          22.2990   -11.6180    11.9050 cd         1 NQT       0.330600
     12 C4          21.5580   -12.4240    10.8970 c3         1 NQT      -0.122400
     13 C2          21.7580   -10.7800    12.9080 cd         1 NQT      -0.320300
     14 C1          22.8280   -10.2720    13.5930 cc         1 NQT      -0.036600
     15 C           22.8280    -9.2860    14.7060 c3         1 NQT      -0.026800
     16 C6          26.7760   -10.0800    14.9180 ca         1 NQT       0.752200
     17 N2          25.5210   -10.3050    14.5550 nb         1 NQT      -0.808000
     18 C7          26.0710    -9.6970    17.2270 ca         1 NQT       0.143600
     19 C19         26.0410    -8.5780    18.0520 ca         1 NQT      -0.151000
     20 C18         25.1270    -8.4740    19.0980 ca         1 NQT      -0.114000
     21 C17         24.2330    -9.5090    19.2710 ca         1 NQT      -0.000400
     22 C9          24.2670   -10.6330    18.4420 ca         1 NQT       0.015600
     23 C8          25.1850   -10.7580    17.4240 ca         1 NQT      -0.118000
     24 N5          23.2100    -9.7050    20.1730 n          1 NQT      -0.357000
     25 C16         22.8330    -8.7870    21.2140 c3         1 NQT       0.104300
     26 O1          21.6610   -11.3960    20.5420 o          1 NQT      -0.630500
     27 N4          23.2730   -11.4830    18.8780 n          1 NQT      -0.359000
     28 C10         22.9160   -12.7420    18.2710 c3         1 NQT       0.119000
     29 C12         21.6470   -13.8710    16.3340 c3         1 NQT       0.168800
     30 O           20.9190   -14.7130    17.2270 oh         1 NQT      -0.596800
     31 C13         20.7010   -13.5520    15.1860 c3         1 NQT      -0.108100
     32 H1          22.5540   -11.9260    16.3100 hc         1 NQT       0.062200
     33 H2          21.1330   -12.0260    17.3330 hc         1 NQT       0.062200
     34 H3          23.5420   -14.9450    16.5900 hc         1 NQT       0.044533
     35 H4          22.5850   -15.4780    15.2180 hc         1 NQT       0.044533
     36 H5          23.4610   -13.9500    15.1430 hc         1 NQT       0.044533
     37 H6          28.1730   -10.6430    11.9030 h4         1 NQT       0.042100
     38 H7          22.2420   -12.9970    10.2750 hc         1 NQT       0.049700
     39 H8          20.8710   -13.1210    11.3790 hc         1 NQT       0.049700
     40 H9          20.9600   -11.7850    10.2460 hc         1 NQT       0.049700
     41 H10         20.7180   -10.5640    13.0940 ha         1 NQT       0.165000
     42 H11         23.2560    -9.6840    15.6240 hc         1 NQT       0.057367
     43 H12         23.3980    -8.3920    14.4520 hc         1 NQT       0.057367
     44 H13         21.8020    -8.9830    14.9050 hc         1 NQT       0.057367
     45 H14         27.9820    -9.5120    16.4350 hn         1 NQT       0.462800
     46 H15         26.7340    -7.7670    17.8760 ha         1 NQT       0.138000
     47 H16         25.1260    -7.6000    19.7350 ha         1 NQT       0.145000
     48 H17         25.2190   -11.6360    16.7960 ha         1 NQT       0.159000
     49 H18         21.9430    -9.1580    21.7130 h1         1 NQT       0.052033
     50 H19         23.6280    -8.6810    21.9520 h1         1 NQT       0.052033
     51 H20         22.6120    -7.8040    20.7970 h1         1 NQT       0.052033
     52 H21         22.4040   -13.3340    19.0290 h1         1 NQT       0.063200
     53 H22         23.8430   -13.2660    18.0300 h1         1 NQT       0.063200
     54 H23         21.5430   -15.2240    17.7500 ho         1 NQT       0.399000
     55 H24         19.8080   -13.0310    15.5360 hc         1 NQT       0.044533
     56 H25         21.1900   -12.9090    14.4540 hc         1 NQT       0.044533
     57 H26         20.3850   -14.4640    14.6770 hc         1 NQT       0.044533
     58 N3          27.0350    -9.7640    16.2020 nu         1 NQT      -0.746300
@<TRIPOS>BOND
     1     1    28 1   
     2     1    29 1   
     3     1    32 1   
     4     1    33 1   
     5     2    29 1   
     6     2    34 1   
     7     2    35 1   
     8     2    36 1   
     9     3    24 1   
    10     3    26 2   
    11     3    27 1   
    12     4     5 ar  
    13     4     6 1   
    14     4    16 ar  
    15     5     7 ar  
    16     5    37 1   
    17     7     8 ar  
    18     8     9 1   
    19     8    17 ar  
    20     9    10 1   
    21     9    14 1   
    22    10    11 2   
    23    11    12 1   
    24    11    13 1   
    25    12    38 1   
    26    12    39 1   
    27    12    40 1   
    28    13    14 2   
    29    13    41 1   
    30    14    15 1   
    31    15    42 1   
    32    15    43 1   
    33    15    44 1   
    34    16    17 ar  
    35    16    58 1   
    36    18    19 ar  
    37    18    23 ar  
    38    18    58 1   
    39    19    20 ar  
    40    19    46 1   
    41    20    21 ar  
    42    20    47 1   
    43    21    22 ar  
    44    21    24 1   
    45    22    23 ar  
    46    22    27 1   
    47    23    48 1   
    48    24    25 1   
    49    25    49 1   
    50    25    50 1   
    51    25    51 1   
    52    27    28 1   
    53    28    52 1   
    54    28    53 1   
    55    29    30 1   
    56    29    31 1   
    57    30    54 1   
    58    31    55 1   
    59    31    56 1   
    60    31    57 1   
    61    45    58 1   
@<TRIPOS>SUBSTRUCTURE
     1 NQT         1 TEMP              0 ****  ****    0 ROOT
