@<TRIPOS>MOLECULE
NQT
   58    61     1     0     0
SMALL
No Charge or Current Charge


@<TRIPOS>ATOM
      1 C11         21.7690   -12.0780    17.2450 c3         1 NQT      -0.126400
      2 C14         22.2120   -13.7860    15.3770 c3         1 NQT      -0.108100
      3 C15         23.0440   -11.4070    20.4410 c          1 NQT       0.595000
      4 C20         27.6870    -9.4620    13.9540 ca         1 NQT      -0.094000
      5 C21         27.4730    -9.8380    12.6240 ca         1 NQT       0.167900
      6 Cl          29.1880    -8.6630    14.4370 cl         1 NQT      -0.172000
      7 N6          26.3320   -10.4380    12.2360 nb         1 NQT      -0.177000
      8 C5          25.3700   -10.6790    13.1640 ca         1 NQT       0.292500
      9 N1          24.1830   -11.3060    12.7590 na         1 NQT       0.098300
     10 N           24.2220   -12.5590    12.1780 nc         1 NQT      -0.474800
     11 C3          22.9420   -12.7750    11.9390 cd         1 NQT       0.265300
     12 C4          22.4870   -14.0570    11.3030 c3         1 NQT      -0.122400
     13 C2          22.1180   -11.6990    12.3450 cd         1 NQT      -0.237000
     14 C1          22.9180   -10.7360    12.8880 cc         1 NQT      -0.087300
     15 C           22.5740    -9.3950    13.4830 c3         1 NQT      -0.026800
     16 C6          26.6570    -9.7440    14.8650 ca         1 NQT       0.423900
     17 N2          25.5190   -10.3350    14.4680 nb         1 NQT      -0.282000
     18 C7          25.9650    -9.5110    17.3420 ca         1 NQT       0.282000
     19 C19         26.1610    -8.6140    18.4200 ca         1 NQT      -0.133000
     20 C18         25.4140    -8.7310    19.6120 ca         1 NQT      -0.096000
     21 C17         24.3980    -9.6930    19.6600 ca         1 NQT      -0.000400
     22 C9          24.2170   -10.5910    18.6180 ca         1 NQT       0.015600
     23 C8          25.0250   -10.5580    17.4750 ca         1 NQT      -0.100000
     24 N5          23.6970   -10.2130    20.7840 n          1 NQT      -0.290000
     25 C16         23.4230    -9.4610    22.0200 c3         1 NQT       0.104300
     26 O1          22.2940   -12.0710    21.1440 o          1 NQT      -0.555000
     27 N4          23.4010   -11.6470    19.1070 n          1 NQT      -0.292000
     28 C10         22.7760   -12.6750    18.2570 c3         1 NQT       0.119000
     29 C12         21.1410   -13.0900    16.2510 c3         1 NQT       0.192000
     30 O           20.4590   -14.0950    17.0000 oh         1 NQT      -0.659000
     31 C13         20.0970   -12.3780    15.3620 c3         1 NQT      -0.108100
     32 H1          22.2690   -11.2910    16.6690 hc         1 NQT       0.062200
     33 H2          20.9690   -11.5840    17.8100 hc         1 NQT       0.062200
     34 H3          22.8500   -14.4470    15.9740 hc         1 NQT       0.044533
     35 H4          21.7470   -14.3940    14.5920 hc         1 NQT       0.044533
     36 H5          22.8550   -13.0420    14.8940 hc         1 NQT       0.044533
     37 H6          28.2210    -9.6570    11.8540 h4         1 NQT       0.042100
     38 H7          22.9120   -14.1700    10.2990 hc         1 NQT       0.049700
     39 H8          22.7950   -14.9220    11.9020 hc         1 NQT       0.049700
     40 H9          21.3950   -14.0850    11.2110 hc         1 NQT       0.049700
     41 H10         21.0390   -11.6550    12.2460 ha         1 NQT       0.147000
     42 H11         22.6890    -9.4110    14.5730 hc         1 NQT       0.057367
     43 H12         23.2220    -8.6070    13.0830 hc         1 NQT       0.057367
     44 H13         21.5360    -9.1230    13.2590 hc         1 NQT       0.057367
     45 H14         27.5960    -8.7870    16.3610 hn         1 NQT       0.518000
     46 H15         26.9250    -7.8440    18.3490 ha         1 NQT       0.120000
     47 H16         25.6250    -8.0940    20.4680 ha         1 NQT       0.127000
     48 H17         24.9360   -11.3380    16.7280 ha         1 NQT       0.141000
     49 H18         22.3980    -9.6550    22.3600 h1         1 NQT       0.052033
     50 H19         24.1280    -9.7720    22.8010 h1         1 NQT       0.052033
     51 H20         23.5370    -8.3860    21.8380 h1         1 NQT       0.052033
     52 H21         22.2670   -13.4120    18.8920 h1         1 NQT       0.063200
     53 H22         23.5770   -13.1980    17.7220 h1         1 NQT       0.063200
     54 H23         20.0340   -14.6950    16.3520 ho         1 NQT       0.438000
     55 H24         19.2910   -11.9490    15.9700 hc         1 NQT       0.044533
     56 H25         20.5620   -11.5630    14.7970 hc         1 NQT       0.044533
     57 H26         19.6460   -13.0740    14.6430 hc         1 NQT       0.044533
     58 N3          26.7730    -9.3710    16.2060 nu         1 NQT      -0.939900
@<TRIPOS>BOND
     1     1    28 1   
     2     1    29 1   
     3     1    32 1   
     4     1    33 1   
     5     2    29 1   
     6     2    34 1   
     7     2    35 1   
     8     2    36 1   
     9     3    24 1   
    10     3    26 2   
    11     3    27 1   
    12     4     5 ar  
    13     4     6 1   
    14     4    16 ar  
    15     5     7 ar  
    16     5    37 1   
    17     7     8 ar  
    18     8     9 1   
    19     8    17 ar  
    20     9    10 1   
    21     9    14 1   
    22    10    11 2   
    23    11    12 1   
    24    11    13 1   
    25    12    38 1   
    26    12    39 1   
    27    12    40 1   
    28    13    14 2   
    29    13    41 1   
    30    14    15 1   
    31    15    42 1   
    32    15    43 1   
    33    15    44 1   
    34    16    17 ar  
    35    16    58 1   
    36    18    19 ar  
    37    18    23 ar  
    38    18    58 1   
    39    19    20 ar  
    40    19    46 1   
    41    20    21 ar  
    42    20    47 1   
    43    21    22 ar  
    44    21    24 1   
    45    22    23 ar  
    46    22    27 1   
    47    23    48 1   
    48    24    25 1   
    49    25    49 1   
    50    25    50 1   
    51    25    51 1   
    52    27    28 1   
    53    28    52 1   
    54    28    53 1   
    55    29    30 1   
    56    29    31 1   
    57    30    54 1   
    58    31    55 1   
    59    31    56 1   
    60    31    57 1   
    61    45    58 1   
@<TRIPOS>SUBSTRUCTURE
     1 NQT         1 TEMP              0 ****  ****    0 ROOT
