@<TRIPOS>MOLECULE
NQU
   56    58     1     0     0
SMALL
abcg2


@<TRIPOS>ATOM
      1 C1         -20.6950   -25.0720    -3.1500 c          1 NQU       0.590100
      2 C2         -21.8730   -25.0200    -4.1110 c3         1 NQU       0.037600
      3 C3         -19.4390   -24.0100    -1.3280 c3         1 NQU       0.109000
      4 C4         -18.2200   -23.2920    -1.9130 c6         1 NQU      -0.087700
      5 C5         -17.0810   -23.2840    -0.8930 c6         1 NQU      -0.092400
      6 C6         -15.8750   -22.4830    -1.3840 c6         1 NQU       0.096000
      7 O1         -19.9380   -26.0380    -3.2540 o          1 NQU      -0.607100
      8 N1         -20.5570   -24.0910    -2.2550 ns         1 NQU      -0.491900
      9 N2         -16.2690   -21.1280    -1.7830 n          1 NQU      -0.402800
     10 C7         -15.8210   -19.9450    -1.3090 c          1 NQU       0.580100
     11 O2         -16.1960   -18.8690    -1.7860 o          1 NQU      -0.615100
     12 C8         -14.7720   -19.9010    -0.1650 c6         1 NQU       0.122000
     13 O3         -15.0240   -20.8730     0.8750 os         1 NQU      -0.359100
     14 C9         -16.2080   -20.9480     1.5400 ca         1 NQU       0.146100
     15 C10        -16.2500   -21.9120     2.5520 ca         1 NQU      -0.163500
     16 C11        -17.4190   -22.1460     3.2570 ca         1 NQU      -0.068500
     17 C12        -18.5560   -21.4070     2.9530 ca         1 NQU       0.082000
     18 CL2        -20.0450   -21.7080     3.8290 cl         1 NQU      -0.214000
     19 C13        -18.5260   -20.4360     1.9660 ca         1 NQU      -0.068500
     20 C14        -17.3510   -20.2010     1.2580 ca         1 NQU      -0.163500
     21 C15        -13.4000   -20.2760    -0.7540 c6         1 NQU      -0.076400
     22 C16        -12.2690   -20.1660     0.2710 c6         1 NQU      -0.071400
     23 C17        -12.2220   -18.7820     0.9140 c6         1 NQU      -0.075400
     24 C18        -13.5810   -18.4060     1.5040 c6         1 NQU      -0.071400
     25 C19        -14.6880   -18.4970     0.4530 c6         1 NQU      -0.076400
     26 C20        -17.2950   -21.1330    -2.8310 c6         1 NQU       0.096000
     27 C21        -18.5440   -21.8610    -2.3460 c6         1 NQU      -0.092400
     28 H1         -21.4880   -25.0580    -5.1260 h1         1 NQU       0.096200
     29 H2         -22.5090   -25.8820    -3.9300 h1         1 NQU       0.096200
     30 CL1        -22.9260   -23.5550    -4.0060 cl         1 NQU      -0.279000
     31 H4         -19.7870   -23.4790    -0.4400 h1         1 NQU       0.062200
     32 H5         -19.1660   -25.0230    -1.0330 h1         1 NQU       0.062200
     33 H6         -17.8900   -23.8490    -2.7970 hc         1 NQU       0.063700
     34 H7         -17.4390   -22.8560     0.0450 hc         1 NQU       0.052950
     35 H8         -16.7550   -24.3050    -0.6810 hc         1 NQU       0.052950
     36 H9         -15.4480   -22.9690    -2.2670 h1         1 NQU       0.062200
     37 H10        -15.1130   -22.4480    -0.6190 h1         1 NQU       0.062200
     38 H11        -21.2240   -23.3350    -2.2750 hn         1 NQU       0.330500
     39 H12        -15.3580   -22.4870     2.7620 ha         1 NQU       0.134500
     40 H13        -17.4470   -22.9010     4.0300 ha         1 NQU       0.131000
     41 H14        -19.4140   -19.8630     1.7350 ha         1 NQU       0.131000
     42 H15        -17.3610   -19.4480     0.4870 ha         1 NQU       0.134500
     43 H16        -13.4350   -21.2800    -1.1740 hc         1 NQU       0.060450
     44 H17        -13.2160   -19.5870    -1.5830 hc         1 NQU       0.060450
     45 H18        -12.4080   -20.9250     1.0450 hc         1 NQU       0.047450
     46 H19        -11.3220   -20.3900    -0.2260 hc         1 NQU       0.047450
     47 H20        -11.4500   -18.7520     1.6870 hc         1 NQU       0.041700
     48 H21        -11.9430   -18.0410     0.1560 hc         1 NQU       0.041700
     49 H22        -13.5550   -17.3890     1.9010 hc         1 NQU       0.047450
     50 H23        -13.8120   -19.0670     2.3440 hc         1 NQU       0.047450
     51 H24        -14.4860   -17.7930    -0.3540 hc         1 NQU       0.060450
     52 H25        -15.6460   -18.2120     0.8830 hc         1 NQU       0.060450
     53 H26        -16.8820   -21.6400    -3.7090 h1         1 NQU       0.062200
     54 H27        -17.5150   -20.1060    -3.1000 h1         1 NQU       0.062200
     55 H28        -18.9720   -21.3100    -1.5020 hc         1 NQU       0.052950
     56 H29        -19.2860   -21.8610    -3.1470 hc         1 NQU       0.052950
@<TRIPOS>BOND
     1     1     2 1   
     2     1     7 2   
     3     1     8 1   
     4     2    28 1   
     5     2    29 1   
     6     2    30 1   
     7     3     4 1   
     8     3     8 1   
     9     3    31 1   
    10     3    32 1   
    11     4     5 1   
    12     4    27 1   
    13     4    33 1   
    14     5     6 1   
    15     5    34 1   
    16     5    35 1   
    17     6     9 1   
    18     6    36 1   
    19     6    37 1   
    20     8    38 1   
    21     9    10 1   
    22     9    26 1   
    23    10    11 2   
    24    10    12 1   
    25    12    13 1   
    26    12    21 1   
    27    12    25 1   
    28    13    14 1   
    29    14    15 ar  
    30    14    20 ar  
    31    15    16 ar  
    32    15    39 1   
    33    16    17 ar  
    34    16    40 1   
    35    17    18 1   
    36    17    19 ar  
    37    19    20 ar  
    38    19    41 1   
    39    20    42 1   
    40    21    22 1   
    41    21    43 1   
    42    21    44 1   
    43    22    23 1   
    44    22    45 1   
    45    22    46 1   
    46    23    24 1   
    47    23    47 1   
    48    23    48 1   
    49    24    25 1   
    50    24    49 1   
    51    24    50 1   
    52    25    51 1   
    53    25    52 1   
    54    26    27 1   
    55    26    53 1   
    56    26    54 1   
    57    27    55 1   
    58    27    56 1   
@<TRIPOS>SUBSTRUCTURE
     1 NQU         1 TEMP              0 ****  ****    0 ROOT
