@<TRIPOS>MOLECULE
NQU
   56    58     1     0     0
SMALL
No Charge or Current Charge


@<TRIPOS>ATOM
      1 C1         -20.5700   -25.0960    -3.5460 c          1 NQU       0.590100
      2 C2         -21.6770   -24.9820    -4.6020 c3         1 NQU       0.037600
      3 C3         -19.6590   -24.0370    -1.4450 c3         1 NQU       0.109000
      4 C4         -18.3340   -23.3510    -1.8900 c6         1 NQU      -0.087700
      5 C5         -17.3220   -23.2780    -0.7180 c6         1 NQU      -0.092400
      6 C6         -16.0110   -22.5720    -1.1420 c6         1 NQU       0.096000
      7 O1         -19.6870   -25.9430    -3.5990 o          1 NQU      -0.607100
      8 N1         -20.6380   -24.1660    -2.5290 ns         1 NQU      -0.491900
      9 N2         -16.2770   -21.2160    -1.7000 n          1 NQU      -0.402800
     10 C7         -16.1310   -20.0390    -0.9200 c          1 NQU       0.580100
     11 O2         -17.0200   -19.1920    -0.9600 o          1 NQU      -0.615100
     12 C8         -14.8660   -19.8450     0.0220 c6         1 NQU       0.122000
     13 O3         -14.9640   -20.6220     1.2580 os         1 NQU      -0.359100
     14 C9         -16.1410   -20.8780     1.9370 ca         1 NQU       0.146100
     15 C10        -16.2300   -22.1140     2.6010 ca         1 NQU      -0.163500
     16 C11        -17.3950   -22.4690     3.3040 ca         1 NQU      -0.068500
     17 C12        -18.4770   -21.5770     3.3570 ca         1 NQU       0.082000
     18 Cl2        -19.9380   -22.0170     4.2310 cl         1 NQU      -0.214000
     19 C13        -18.3890   -20.3290     2.7190 ca         1 NQU      -0.068500
     20 C14        -17.2230   -19.9750     2.0160 ca         1 NQU      -0.163500
     21 C15        -13.5690   -20.3560    -0.7070 c6         1 NQU      -0.076400
     22 C16        -12.2690   -20.1100     0.1050 c6         1 NQU      -0.071400
     23 C17        -12.0940   -18.6150     0.4510 c6         1 NQU      -0.075400
     24 C18        -13.3440   -18.0730     1.1790 c6         1 NQU      -0.071400
     25 C19        -14.6260   -18.3250     0.3440 c6         1 NQU      -0.076400
     26 C20        -17.2240   -21.2540    -2.8470 c6         1 NQU       0.096000
     27 C21        -18.5650   -21.9280    -2.4670 c6         1 NQU      -0.092400
     28 H1         -21.5980   -25.8300    -5.2910 h1         1 NQU       0.096200
     29 H2         -22.6500   -25.0120    -4.0990 h1         1 NQU       0.096200
     30 Cl1        -21.5840   -23.4370    -5.5780 cl         1 NQU      -0.279000
     31 H4         -20.1110   -23.4500    -0.6340 h1         1 NQU       0.062200
     32 H5         -19.4330   -25.0360    -1.0490 h1         1 NQU       0.062200
     33 H6         -17.9020   -23.9830    -2.6790 hc         1 NQU       0.063700
     34 H7         -17.7690   -22.7350     0.1250 hc         1 NQU       0.052950
     35 H8         -17.0920   -24.2880    -0.3520 hc         1 NQU       0.052950
     36 H9         -15.5000   -23.1770    -1.9050 h1         1 NQU       0.062200
     37 H10        -15.3490   -22.5280    -0.2700 h1         1 NQU       0.062200
     38 H11        -21.3960   -23.4950    -2.5770 hn         1 NQU       0.330500
     39 H12        -15.3930   -22.8070     2.5580 ha         1 NQU       0.134500
     40 H13        -17.4600   -23.4320     3.8050 ha         1 NQU       0.131000
     41 H14        -19.2240   -19.6340     2.7730 ha         1 NQU       0.131000
     42 H15        -17.1820   -18.9990     1.5520 ha         1 NQU       0.134500
     43 H16        -13.6250   -21.4260    -0.9340 hc         1 NQU       0.060450
     44 H17        -13.4830   -19.8550    -1.6820 hc         1 NQU       0.060450
     45 H18        -12.2850   -20.7060     1.0280 hc         1 NQU       0.047450
     46 H19        -11.4010   -20.4590    -0.4710 hc         1 NQU       0.047450
     47 H20        -11.2040   -18.4780     1.0800 hc         1 NQU       0.041700
     48 H21        -11.9210   -18.0390    -0.4680 hc         1 NQU       0.041700
     49 H22        -13.2260   -16.9970     1.3640 hc         1 NQU       0.047450
     50 H23        -13.4380   -18.5480     2.1650 hc         1 NQU       0.047450
     51 H24        -14.5530   -17.7640    -0.5980 hc         1 NQU       0.060450
     52 H25        -15.4790   -17.8900     0.8740 hc         1 NQU       0.060450
     53 H26        -16.7590   -21.8160    -3.6700 h1         1 NQU       0.062200
     54 H27        -17.4130   -20.2380    -3.2230 h1         1 NQU       0.062200
     55 H28        -19.0880   -21.3040    -1.7280 hc         1 NQU       0.052950
     56 H29        -19.2100   -21.9720    -3.3550 hc         1 NQU       0.052950
@<TRIPOS>BOND
     1     1     2 1   
     2     1     7 2   
     3     1     8 1   
     4     2    28 1   
     5     2    29 1   
     6     2    30 1   
     7     3     4 1   
     8     3     8 1   
     9     3    31 1   
    10     3    32 1   
    11     4     5 1   
    12     4    27 1   
    13     4    33 1   
    14     5     6 1   
    15     5    34 1   
    16     5    35 1   
    17     6     9 1   
    18     6    36 1   
    19     6    37 1   
    20     8    38 1   
    21     9    10 1   
    22     9    26 1   
    23    10    11 2   
    24    10    12 1   
    25    12    13 1   
    26    12    21 1   
    27    12    25 1   
    28    13    14 1   
    29    14    15 ar  
    30    14    20 ar  
    31    15    16 ar  
    32    15    39 1   
    33    16    17 ar  
    34    16    40 1   
    35    17    18 1   
    36    17    19 ar  
    37    19    20 ar  
    38    19    41 1   
    39    20    42 1   
    40    21    22 1   
    41    21    43 1   
    42    21    44 1   
    43    22    23 1   
    44    22    45 1   
    45    22    46 1   
    46    23    24 1   
    47    23    47 1   
    48    23    48 1   
    49    24    25 1   
    50    24    49 1   
    51    24    50 1   
    52    25    51 1   
    53    25    52 1   
    54    26    27 1   
    55    26    53 1   
    56    26    54 1   
    57    27    55 1   
    58    27    56 1   
@<TRIPOS>SUBSTRUCTURE
     1 NQU         1 TEMP              0 ****  ****    0 ROOT
