@<TRIPOS>MOLECULE
NQV
   81    85     1     0     0
SMALL
No Charge or Current Charge


@<TRIPOS>ATOM
      1 C4         -54.8040    28.5270   -38.9640 ca         1 NQV      -0.055000
      2 C14        -55.8550    38.4440   -32.7460 c6         1 NQV       0.168300
      3 C5         -54.5570    29.9060   -38.9720 ca         1 NQV      -0.236000
      4 C6         -54.3560    30.5460   -40.2000 ca         1 NQV       0.633900
      5 C11        -54.0020    36.5800   -37.0520 c          1 NQV       0.617700
      6 C7         -54.0590    32.9960   -39.5410 ca         1 NQV       0.317000
      7 C8         -54.9510    33.1210   -38.4620 ca         1 NQV      -0.155000
      8 C9         -54.9400    34.2650   -37.6480 ca         1 NQV      -0.089000
      9 C10        -54.0400    35.3260   -37.9080 ca         1 NQV      -0.150600
     10 C12        -55.0230    37.7510   -35.0510 c6         1 NQV       0.113700
     11 C13        -55.6370    37.2620   -33.7190 c6         1 NQV      -0.091400
     12 N1         -55.1230    26.4350   -40.2870 n          1 NQV      -0.196400
     13 N2         -54.0740    31.8640   -40.3640 nu         1 NQV      -0.940900
     14 C3         -54.7780    27.8430   -40.1960 ca         1 NQV      -0.167000
     15 N3         -54.8770    36.6300   -35.9890 ns         1 NQV      -0.502900
     16 C1         -55.4630    25.8420   -41.5290 c          1 NQV       0.565000
     17 C16        -56.1440    40.0000   -34.6310 c6         1 NQV       0.168300
     18 C17        -55.9300    38.8530   -35.6470 c6         1 NQV      -0.091400
     19 C18        -53.1620    35.2110   -39.0110 ca         1 NQV      -0.119000
     20 C19        -53.1640    34.0570   -39.8300 ca         1 NQV       0.093100
     21 C2         -54.9680    25.5670   -39.0940 c3         1 NQV       0.082300
     22 C20        -51.2040    34.7970   -41.1960 c3         1 NQV       0.182300
     23 C21        -50.0900    34.4850   -40.1730 c3         1 NQV      -0.108600
     24 C22        -50.7590    34.5100   -42.6420 c3         1 NQV      -0.108600
     25 C23        -54.6120    28.6230   -41.3770 ca         1 NQV       0.625900
     26 C24        -53.7180    28.4100   -43.7250 c5         1 NQV       0.236500
     27 C25        -52.5750    27.3470   -43.6730 c5         1 NQV      -0.095400
     28 C26        -52.1660    27.2550   -45.1620 c5         1 NQV      -0.082900
     29 C27        -53.5610    27.0900   -45.8120 c5         1 NQV      -0.082900
     30 C28        -54.3600    28.2520   -45.1510 c5         1 NQV      -0.095400
     31 C29        -55.5950    26.8260   -42.7320 c6         1 NQV       0.150500
     32 C30        -57.0760    27.2930   -42.8260 c3         1 NQV      -0.118100
     33 N4         -56.7160    39.4940   -33.3540 n3         1 NQV      -0.719600
     34 N5         -54.3720    29.9420   -41.3760 nb         1 NQV      -0.787000
     35 N6         -54.7040    28.0370   -42.6540 nh         1 NQV      -0.772300
     36 O1         -55.6370    24.6340   -41.6660 o          1 NQV      -0.547000
     37 O2         -53.2350    37.5050   -37.2830 o          1 NQV      -0.611100
     38 O3         -52.3250    33.9300   -40.9330 os         1 NQV      -0.369100
     39 H1         -54.9920    28.0160   -38.0220 ha         1 NQV       0.122000
     40 H3         -54.8780    38.8660   -32.4670 h1         1 NQV       0.033700
     41 H4         -54.5080    30.4560   -38.0400 ha         1 NQV       0.134000
     42 H5         -55.6790    32.3410   -38.2630 ha         1 NQV       0.127000
     43 H6         -55.6490    34.3130   -36.8250 ha         1 NQV       0.113000
     44 H7         -54.0270    38.1740   -34.8490 h1         1 NQV       0.072700
     45 H8         -56.5970    36.7610   -33.9050 hc         1 NQV       0.053450
     46 H9         -54.9770    36.5190   -33.2520 hc         1 NQV       0.053450
     47 H10        -53.6510    32.0140   -41.2730 hn         1 NQV       0.521000
     48 H11        -55.4760    35.8250   -35.8630 hn         1 NQV       0.314500
     49 H12        -57.5050    40.1890   -31.5010 h1         1 NQV       0.030700
     50 H13        -56.1130    41.1170   -32.1070 h1         1 NQV       0.030700
     51 H14        -57.7140    41.3110   -32.8610 h1         1 NQV       0.030700
     52 H15        -55.1820    40.5000   -34.4460 h1         1 NQV       0.033700
     53 H16        -56.8160    40.7470   -35.0800 h1         1 NQV       0.033700
     54 H17        -55.4820    39.2560   -36.5640 hc         1 NQV       0.053450
     55 H18        -56.9030    38.4290   -35.9300 hc         1 NQV       0.053450
     56 H19        -52.4860    36.0330   -39.2250 ha         1 NQV       0.141000
     57 H20        -54.1170    25.9100   -38.4910 h1         1 NQV       0.049033
     58 H21        -55.8810    25.6110   -38.4880 h1         1 NQV       0.049033
     59 H22        -54.7780    24.5260   -39.3800 h1         1 NQV       0.049033
     60 H23        -51.4920    35.8550   -41.1340 h1         1 NQV       0.049700
     61 H24        -50.4080    34.7220   -39.1510 hc         1 NQV       0.047700
     62 H25        -49.8130    33.4250   -40.2100 hc         1 NQV       0.047700
     63 H26        -49.1950    35.0800   -40.3910 hc         1 NQV       0.047700
     64 H27        -49.9010    35.1370   -42.9110 hc         1 NQV       0.047700
     65 H28        -50.4700    33.4590   -42.7620 hc         1 NQV       0.047700
     66 H29        -51.5730    34.7290   -43.3440 hc         1 NQV       0.047700
     67 H30        -53.3180    29.4290   -43.6130 h1         1 NQV       0.082700
     68 H31        -52.9080    26.3700   -43.3030 hc         1 NQV       0.052450
     69 H32        -51.7490    27.6680   -43.0290 hc         1 NQV       0.052450
     70 H33        -51.5060    26.4030   -45.3630 hc         1 NQV       0.044200
     71 H34        -51.6540    28.1620   -45.5070 hc         1 NQV       0.044200
     72 H35        -53.5270    27.1770   -46.9040 hc         1 NQV       0.044200
     73 H36        -54.0000    26.1120   -45.5790 hc         1 NQV       0.044200
     74 H37        -54.2150    29.1780   -45.7190 hc         1 NQV       0.052450
     75 H38        -55.4380    28.0690   -45.1530 hc         1 NQV       0.052450
     76 H39        -55.3630    26.2240   -43.6220 h1         1 NQV       0.095700
     77 H40        -57.7500    26.4360   -42.9440 hc         1 NQV       0.051033
     78 H41        -57.3830    27.8350   -41.9230 hc         1 NQV       0.051033
     79 H42        -57.2360    27.9580   -43.6810 hc         1 NQV       0.051033
     80 H2         -56.3170    38.0600   -31.8240 h1         1 NQV       0.033700
     81 C15        -57.0260    40.5860   -32.4060 c3         1 NQV       0.153100
@<TRIPOS>BOND
     1     1     3 ar  
     2     1    14 ar  
     3     1    39 1   
     4     2    11 1   
     5     2    33 1   
     6     2    40 1   
     7     2    80 1   
     8     3     4 ar  
     9     3    41 1   
    10     4    13 1   
    11     4    34 ar  
    12     5     9 1   
    13     5    15 1   
    14     5    37 2   
    15     6     7 ar  
    16     6    13 1   
    17     6    20 ar  
    18     7     8 ar  
    19     7    42 1   
    20     8     9 ar  
    21     8    43 1   
    22     9    19 ar  
    23    10    11 1   
    24    10    15 1   
    25    10    18 1   
    26    10    44 1   
    27    11    45 1   
    28    11    46 1   
    29    12    14 1   
    30    12    16 1   
    31    12    21 1   
    32    13    47 1   
    33    14    25 ar  
    34    15    48 1   
    35    16    31 1   
    36    16    36 2   
    37    17    18 1   
    38    17    33 1   
    39    17    52 1   
    40    17    53 1   
    41    18    54 1   
    42    18    55 1   
    43    19    20 ar  
    44    19    56 1   
    45    20    38 1   
    46    21    57 1   
    47    21    58 1   
    48    21    59 1   
    49    22    23 1   
    50    22    24 1   
    51    22    38 1   
    52    22    60 1   
    53    23    61 1   
    54    23    62 1   
    55    23    63 1   
    56    24    64 1   
    57    24    65 1   
    58    24    66 1   
    59    25    34 ar  
    60    25    35 1   
    61    26    27 1   
    62    26    30 1   
    63    26    35 1   
    64    26    67 1   
    65    27    28 1   
    66    27    68 1   
    67    27    69 1   
    68    28    29 1   
    69    28    70 1   
    70    28    71 1   
    71    29    30 1   
    72    29    72 1   
    73    29    73 1   
    74    30    74 1   
    75    30    75 1   
    76    31    32 1   
    77    31    35 1   
    78    31    76 1   
    79    32    77 1   
    80    32    78 1   
    81    32    79 1   
    82    33    81 1   
    83    49    81 1   
    84    50    81 1   
    85    51    81 1   
@<TRIPOS>SUBSTRUCTURE
     1 NQV         1 TEMP              0 ****  ****    0 ROOT
