@<TRIPOS>MOLECULE
NQV
   81    85     1     0     0
SMALL
abcg2


@<TRIPOS>ATOM
      1 C4         -54.7740    28.6390   -38.8920 ca         1 NQV      -0.055000
      2 C14        -55.6890    38.4840   -33.1050 c6         1 NQV       0.168300
      3 C5         -54.3670    29.9670   -38.9300 ca         1 NQV      -0.236000
      4 C6         -53.9330    30.4800   -40.1470 ca         1 NQV       0.633900
      5 C11        -54.1920    36.5580   -37.3780 c          1 NQV       0.617700
      6 C7         -53.6820    32.8910   -39.5660 ca         1 NQV       0.317000
      7 C8         -54.7750    33.0550   -38.7220 ca         1 NQV      -0.155000
      8 C9         -54.9500    34.2210   -37.9910 ca         1 NQV      -0.089000
      9 C10        -54.0470    35.2670   -38.1110 ca         1 NQV      -0.150600
     10 C12        -55.1680    37.6730   -35.4130 c6         1 NQV       0.113700
     11 C13        -55.3180    37.2760   -33.9500 c6         1 NQV      -0.091400
     12 N1         -55.0290    26.4880   -40.0370 n          1 NQV      -0.196400
     13 N2         -53.4530    31.7610   -40.3230 nu         1 NQV      -0.940900
     14 C3         -54.7370    27.8600   -40.0320 ca         1 NQV      -0.167000
     15 N3         -54.8680    36.5060   -36.2180 ns         1 NQV      -0.502900
     16 C1         -55.2710    25.8350   -41.2010 c          1 NQV       0.565000
     17 C16        -56.7600    39.5530   -34.9590 c6         1 NQV       0.168300
     18 C17        -56.4350    38.3860   -35.8790 c6         1 NQV      -0.091400
     19 C18        -52.9710    35.1360   -38.9940 ca         1 NQV      -0.119000
     20 C19        -52.7730    33.9670   -39.7050 ca         1 NQV       0.093100
     21 C2         -55.0880    25.7830   -38.7720 c3         1 NQV       0.082300
     22 C20        -50.7490    34.7210   -40.7950 c3         1 NQV       0.182300
     23 C21        -49.7340    34.6970   -39.6640 c3         1 NQV      -0.108600
     24 C22        -50.1180    34.3830   -42.1300 c3         1 NQV      -0.108600
     25 C23        -54.2900    28.4780   -41.2180 ca         1 NQV       0.625900
     26 C24        -53.5840    28.2160   -43.5430 c5         1 NQV       0.236500
     27 C25        -52.9280    27.0910   -44.3790 c5         1 NQV      -0.095400
     28 C26        -53.2710    27.4060   -45.8360 c5         1 NQV      -0.082900
     29 C27        -54.6360    28.0850   -45.7470 c5         1 NQV      -0.082900
     30 C28        -54.4770    29.0010   -44.5360 c5         1 NQV      -0.095400
     31 C29        -55.3060    26.7190   -42.4350 c6         1 NQV       0.150500
     32 C30        -56.7200    27.2910   -42.6020 c3         1 NQV      -0.118100
     33 N4         -56.9040    39.1130   -33.5840 n3         1 NQV      -0.719600
     34 N5         -53.9060    29.7400   -41.2550 nb         1 NQV      -0.787000
     35 N6         -54.2520    27.7130   -42.3510 nh         1 NQV      -0.772300
     36 O1         -55.4960    24.6380   -41.2660 o          1 NQV      -0.547000
     37 O2         -53.7050    37.5940   -37.8160 o          1 NQV      -0.611100
     38 O3         -51.7730    33.7450   -40.5780 os         1 NQV      -0.369100
     39 H1         -55.0880    28.2210   -37.9450 ha         1 NQV       0.122000
     40 H3         -54.8430    39.1960   -33.0930 h1         1 NQV       0.033700
     41 H4         -54.3520    30.5490   -38.0210 ha         1 NQV       0.134000
     42 H5         -55.5220    32.2780   -38.6460 ha         1 NQV       0.127000
     43 H6         -55.8290    34.3020   -37.3650 ha         1 NQV       0.113000
     44 H7         -54.3260    38.3660   -35.4980 h1         1 NQV       0.072700
     45 H8         -56.1000    36.5150   -33.8520 hc         1 NQV       0.053450
     46 H9         -54.3880    36.8410   -33.5770 hc         1 NQV       0.053450
     47 H10        -52.9290    31.8880   -41.1750 hn         1 NQV       0.521000
     48 H11        -55.1800    35.6130   -35.8730 hn         1 NQV       0.314500
     49 H12        -57.4690    39.8280   -31.7050 h1         1 NQV       0.030700
     50 H13        -56.5750    41.0140   -32.6680 h1         1 NQV       0.030700
     51 H14        -58.2540    40.6220   -33.0690 h1         1 NQV       0.030700
     52 H15        -55.9740    40.3250   -35.0570 h1         1 NQV       0.033700
     53 H16        -57.6950    40.0190   -35.2770 h1         1 NQV       0.033700
     54 H17        -56.3120    38.7510   -36.9000 hc         1 NQV       0.053450
     55 H18        -57.2680    37.6770   -35.8820 hc         1 NQV       0.053450
     56 H19        -52.2850    35.9650   -39.0960 ha         1 NQV       0.141000
     57 H20        -54.1970    25.9920   -38.1810 h1         1 NQV       0.049033
     58 H21        -55.9660    26.0820   -38.1970 h1         1 NQV       0.049033
     59 H22        -55.1440    24.7160   -38.9560 h1         1 NQV       0.049033
     60 H23        -51.2050    35.7150   -40.8660 h1         1 NQV       0.049700
     61 H24        -50.1860    34.8970   -38.6920 hc         1 NQV       0.047700
     62 H25        -49.2340    33.7290   -39.6150 hc         1 NQV       0.047700
     63 H26        -48.9760    35.4610   -39.8350 hc         1 NQV       0.047700
     64 H27        -49.3340    35.1050   -42.3600 hc         1 NQV       0.047700
     65 H28        -49.6650    33.3900   -42.1110 hc         1 NQV       0.047700
     66 H29        -50.8510    34.4160   -42.9360 hc         1 NQV       0.047700
     67 H30        -52.8080    28.8800   -43.1690 h1         1 NQV       0.082700
     68 H31        -53.3290    26.1120   -44.1110 hc         1 NQV       0.052450
     69 H32        -51.8550    27.0400   -44.1970 hc         1 NQV       0.052450
     70 H33        -53.2720    26.5170   -46.4680 hc         1 NQV       0.044200
     71 H34        -52.5420    28.1030   -46.2580 hc         1 NQV       0.044200
     72 H35        -54.9090    28.6230   -46.6560 hc         1 NQV       0.044200
     73 H36        -55.4140    27.3350   -45.5710 hc         1 NQV       0.044200
     74 H37        -53.9500    29.9090   -44.8380 hc         1 NQV       0.052450
     75 H38        -55.4180    29.3190   -44.0900 hc         1 NQV       0.052450
     76 H39        -55.1010    26.0640   -43.2800 h1         1 NQV       0.095700
     77 H40        -57.4560    26.4880   -42.5650 hc         1 NQV       0.051033
     78 H41        -56.9600    28.0110   -41.8180 hc         1 NQV       0.051033
     79 H42        -56.8240    27.7910   -43.5630 hc         1 NQV       0.051033
     80 H2         -55.8420    38.1670   -32.0700 h1         1 NQV       0.033700
     81 C15        -57.3120    40.1970   -32.7200 c3         1 NQV       0.153100
@<TRIPOS>BOND
     1     1     3 ar  
     2     1    14 ar  
     3     1    39 1   
     4     2    11 1   
     5     2    33 1   
     6     2    40 1   
     7     2    80 1   
     8     3     4 ar  
     9     3    41 1   
    10     4    13 1   
    11     4    34 ar  
    12     5     9 1   
    13     5    15 1   
    14     5    37 2   
    15     6     7 ar  
    16     6    13 1   
    17     6    20 ar  
    18     7     8 ar  
    19     7    42 1   
    20     8     9 ar  
    21     8    43 1   
    22     9    19 ar  
    23    10    11 1   
    24    10    15 1   
    25    10    18 1   
    26    10    44 1   
    27    11    45 1   
    28    11    46 1   
    29    12    14 1   
    30    12    16 1   
    31    12    21 1   
    32    13    47 1   
    33    14    25 ar  
    34    15    48 1   
    35    16    31 1   
    36    16    36 2   
    37    17    18 1   
    38    17    33 1   
    39    17    52 1   
    40    17    53 1   
    41    18    54 1   
    42    18    55 1   
    43    19    20 ar  
    44    19    56 1   
    45    20    38 1   
    46    21    57 1   
    47    21    58 1   
    48    21    59 1   
    49    22    23 1   
    50    22    24 1   
    51    22    38 1   
    52    22    60 1   
    53    23    61 1   
    54    23    62 1   
    55    23    63 1   
    56    24    64 1   
    57    24    65 1   
    58    24    66 1   
    59    25    34 ar  
    60    25    35 1   
    61    26    27 1   
    62    26    30 1   
    63    26    35 1   
    64    26    67 1   
    65    27    28 1   
    66    27    68 1   
    67    27    69 1   
    68    28    29 1   
    69    28    70 1   
    70    28    71 1   
    71    29    30 1   
    72    29    72 1   
    73    29    73 1   
    74    30    74 1   
    75    30    75 1   
    76    31    32 1   
    77    31    35 1   
    78    31    76 1   
    79    32    77 1   
    80    32    78 1   
    81    32    79 1   
    82    33    81 1   
    83    49    81 1   
    84    50    81 1   
    85    51    81 1   
@<TRIPOS>SUBSTRUCTURE
     1 NQV         1 TEMP              0 ****  ****    0 ROOT
