@<TRIPOS>MOLECULE
NQW
   64    67     1     0     0
SMALL
abcg2


@<TRIPOS>ATOM
      1 CL         -28.1020    11.8700    13.6370 cl         1 NQW      -0.191000
      2 C21        -27.0150    10.6240    13.1290 ca         1 NQW      -0.136000
      3 C22        -26.9940    10.1800    11.8290 ca         1 NQW       0.193900
      4 N5         -26.1840     9.2250    11.3990 nb         1 NQW      -0.274000
      5 C6         -25.3600     8.6980    12.3130 ca         1 NQW       0.439900
      6 N          -24.5140     7.7230    11.9140 nh         1 NQW      -0.770300
      7 C2         -23.6400     7.0130    12.8230 c6         1 NQW       0.189800
      8 C3         -24.4970     7.1900    10.5690 c6         1 NQW       0.189800
      9 C4         -24.7990     5.6960    10.5950 c6         1 NQW       0.150300
     10 C5         -24.6490     5.0740     9.2230 c3         1 NQW      -0.086100
     11 O          -23.9190     5.0270    11.4790 os         1 NQW      -0.458000
     12 C1         -23.9740     5.5260    12.8030 c6         1 NQW       0.150300
     13 C          -23.0130     4.7230    13.6530 c3         1 NQW      -0.086100
     14 C7         -26.1080    10.0180    14.0250 ca         1 NQW       0.444900
     15 N1         -25.2980     9.0700    13.5930 nb         1 NQW      -0.323000
     16 N2         -26.0560    10.4020    15.3210 nu         1 NQW      -0.939900
     17 C8         -25.1630     9.9390    16.3030 ca         1 NQW       0.298000
     18 C13        -24.8790     8.5830    16.4680 ca         1 NQW      -0.106000
     19 C12        -24.0050     8.1490    17.4610 ca         1 NQW      -0.095000
     20 C11        -23.4450     9.0960    18.2940 ca         1 NQW      -0.009400
     21 N3         -22.5640     8.9930    19.3490 n          1 NQW      -0.290000
     22 C14        -22.0090     7.7640    19.8520 c3         1 NQW       0.106300
     23 C15        -22.3180    10.2390    19.8740 c          1 NQW       0.596000
     24 O1         -21.5890    10.5110    20.8120 o          1 NQW      -0.560000
     25 N4         -23.0640    11.1270    19.1300 n          1 NQW      -0.293000
     26 C10        -23.7540    10.4500    18.1490 ca         1 NQW       0.024600
     27 C9         -24.6000    10.8950    17.1540 ca         1 NQW      -0.153000
     28 C16        -23.0730    12.5570    19.3290 c3         1 NQW       0.119000
     29 C17        -22.1730    13.2840    18.3350 c3         1 NQW      -0.129400
     30 C18        -22.2160    14.8170    18.4380 c3         1 NQW       0.190000
     31 O2         -21.8310    15.2380    19.7420 oh         1 NQW      -0.657000
     32 C20        -21.1820    15.4020    17.4840 c3         1 NQW      -0.104600
     33 C19        -23.6020    15.3610    18.0920 c3         1 NQW      -0.104600
     34 H1         -27.6690    10.6160    11.1000 h4         1 NQW       0.031100
     35 H2         -22.5990     7.1580    12.5110 h1         1 NQW       0.073450
     36 H3         -23.7460     7.4110    13.8280 h1         1 NQW       0.073450
     37 H4         -23.5060     7.3570    10.1290 h1         1 NQW       0.073450
     38 H5         -25.2290     7.7080     9.9560 h1         1 NQW       0.073450
     39 H6         -25.8350     5.5690    10.9450 h1         1 NQW       0.040700
     40 H7         -24.8750     4.0080     9.2490 hc         1 NQW       0.046033
     41 H8         -25.3370     5.5430     8.5190 hc         1 NQW       0.046033
     42 H9         -23.6350     5.2020     8.8410 hc         1 NQW       0.046033
     43 H10        -24.9960     5.4040    13.1960 h1         1 NQW       0.040700
     44 H11        -23.0740     5.0410    14.6940 hc         1 NQW       0.046033
     45 H12        -23.2540     3.6600    13.6170 hc         1 NQW       0.046033
     46 H13        -21.9820     4.8530    13.3200 hc         1 NQW       0.046033
     47 H14        -26.5870    11.2230    15.5650 hn         1 NQW       0.511000
     48 H15        -25.3460     7.8550    15.8240 ha         1 NQW       0.136000
     49 H16        -23.7900     7.0940    17.5730 ha         1 NQW       0.124000
     50 H17        -21.2640     7.9910    20.6090 h1         1 NQW       0.051033
     51 H18        -22.7830     7.1400    20.2990 h1         1 NQW       0.051033
     52 H19        -21.5280     7.2080    19.0490 h1         1 NQW       0.051033
     53 H20        -24.8220    11.9460    17.0220 ha         1 NQW       0.124000
     54 H21        -22.7520    12.7450    20.3530 h1         1 NQW       0.061700
     55 H22        -24.1090    12.8940    19.2540 h1         1 NQW       0.061700
     56 H23        -22.4470    12.9950    17.3160 hc         1 NQW       0.061700
     57 H24        -21.1430    12.9470    18.4880 hc         1 NQW       0.061700
     58 H25        -22.5580    15.0790    20.3520 ho         1 NQW       0.440000
     59 H26        -20.1770    15.0560    17.7300 hc         1 NQW       0.043200
     60 H27        -21.3960    15.1030    16.4570 hc         1 NQW       0.043200
     61 H28        -21.1880    16.4930    17.5230 hc         1 NQW       0.043200
     62 H29        -24.3660    15.0250    18.7970 hc         1 NQW       0.043200
     63 H30        -23.5990    16.4520    18.1100 hc         1 NQW       0.043200
     64 H31        -23.9110    15.0440    17.0950 hc         1 NQW       0.043200
@<TRIPOS>BOND
     1     1     2 1   
     2     2     3 ar  
     3     2    14 ar  
     4     3     4 ar  
     5     3    34 1   
     6     4     5 ar  
     7     5     6 1   
     8     5    15 ar  
     9     6     7 1   
    10     6     8 1   
    11     7    12 1   
    12     7    35 1   
    13     7    36 1   
    14     8     9 1   
    15     8    37 1   
    16     8    38 1   
    17     9    10 1   
    18     9    11 1   
    19     9    39 1   
    20    10    40 1   
    21    10    41 1   
    22    10    42 1   
    23    11    12 1   
    24    12    13 1   
    25    12    43 1   
    26    13    44 1   
    27    13    45 1   
    28    13    46 1   
    29    14    15 ar  
    30    14    16 1   
    31    16    17 1   
    32    16    47 1   
    33    17    18 ar  
    34    17    27 ar  
    35    18    19 ar  
    36    18    48 1   
    37    19    20 ar  
    38    19    49 1   
    39    20    21 1   
    40    20    26 ar  
    41    21    22 1   
    42    21    23 1   
    43    22    50 1   
    44    22    51 1   
    45    22    52 1   
    46    23    24 2   
    47    23    25 1   
    48    25    26 1   
    49    25    28 1   
    50    26    27 ar  
    51    27    53 1   
    52    28    29 1   
    53    28    54 1   
    54    28    55 1   
    55    29    30 1   
    56    29    56 1   
    57    29    57 1   
    58    30    31 1   
    59    30    32 1   
    60    30    33 1   
    61    31    58 1   
    62    32    59 1   
    63    32    60 1   
    64    32    61 1   
    65    33    62 1   
    66    33    63 1   
    67    33    64 1   
@<TRIPOS>SUBSTRUCTURE
     1 NQW         1 TEMP              0 ****  ****    0 ROOT
