@<TRIPOS>MOLECULE
NQW
   64    67     1     0     0
SMALL
No Charge or Current Charge


@<TRIPOS>ATOM
      1 Cl         -28.0330    12.0380    13.6780 cl         1 NQW      -0.191000
      2 C21        -27.1570    10.5930    13.1580 ca         1 NQW      -0.136000
      3 C22        -27.3900    10.0310    11.8940 ca         1 NQW       0.193900
      4 N5         -26.7260     8.9370    11.4760 nb         1 NQW      -0.274000
      5 C6         -25.8220     8.4070    12.3260 ca         1 NQW       0.439900
      6 N          -25.1170     7.2510    11.8940 nh         1 NQW      -0.770300
      7 C2         -23.9110     6.7460    12.6480 c6         1 NQW       0.189800
      8 C3         -25.1700     6.7990    10.4560 c6         1 NQW       0.189800
      9 C4         -24.7810     5.2970    10.2720 c6         1 NQW       0.150300
     10 C5         -24.6140     4.9070     8.7840 c3         1 NQW      -0.086100
     11 O          -23.5310     5.0050    10.9310 os         1 NQW      -0.458000
     12 C1         -23.5890     5.2470    12.3520 c6         1 NQW       0.150300
     13 C          -22.2290     4.8070    12.9450 c3         1 NQW      -0.086100
     14 C7         -26.2050     9.9560    13.9730 ca         1 NQW       0.444900
     15 N1         -25.5330     8.8750    13.5550 nb         1 NQW      -0.323000
     16 N2         -25.8980    10.4680    15.2330 nu         1 NQW      -0.939900
     17 C8         -25.0990    10.0390    16.2980 ca         1 NQW       0.298000
     18 C13        -24.8530     8.6650    16.5550 ca         1 NQW      -0.106000
     19 C12        -24.0980     8.2590    17.6760 ca         1 NQW      -0.095000
     20 C11        -23.5130     9.2530    18.4710 ca         1 NQW      -0.009400
     21 N3         -22.9710     9.1530    19.7830 n          1 NQW      -0.290000
     22 C14        -22.3320     7.9460    20.3340 c3         1 NQW       0.106300
     23 C15        -22.8510    10.4250    20.3580 c          1 NQW       0.596000
     24 O1         -22.3550    10.7060    21.4410 o          1 NQW      -0.560000
     25 N4         -23.3770    11.3090    19.4060 n          1 NQW      -0.293000
     26 C10        -23.7730    10.5970    18.2390 ca         1 NQW       0.024600
     27 C9         -24.6060    11.0110    17.1920 ca         1 NQW      -0.153000
     28 C16        -23.2620    12.7750    19.4930 c3         1 NQW       0.119000
     29 C17        -22.1410    13.3400    18.5890 c3         1 NQW      -0.129400
     30 C18        -21.9590    14.8820    18.6360 c3         1 NQW       0.190000
     31 O2         -21.6690    15.2590    19.9810 oh         1 NQW      -0.657000
     32 C20        -20.7560    15.3030    17.7610 c3         1 NQW      -0.104600
     33 C19        -23.2350    15.6360    18.1900 c3         1 NQW      -0.104600
     34 H1         -28.1150    10.4620    11.2040 h4         1 NQW       0.031100
     35 H2         -23.0320     7.3560    12.3910 h1         1 NQW       0.073450
     36 H3         -24.0570     6.8340    13.7350 h1         1 NQW       0.073450
     37 H4         -24.4930     7.4180     9.8480 h1         1 NQW       0.073450
     38 H5         -26.1800     6.9230    10.0390 h1         1 NQW       0.073450
     39 H6         -25.5670     4.6650    10.7110 h1         1 NQW       0.040700
     40 H7         -24.3510     3.8480     8.6830 hc         1 NQW       0.046033
     41 H8         -25.5460     5.0710     8.2290 hc         1 NQW       0.046033
     42 H9         -23.8270     5.4990     8.3020 hc         1 NQW       0.046033
     43 H10        -24.3780     4.6160    12.7850 h1         1 NQW       0.040700
     44 H11        -22.2180     4.9330    14.0340 hc         1 NQW       0.046033
     45 H12        -22.0310     3.7500    12.7320 hc         1 NQW       0.046033
     46 H13        -21.4030     5.3960    12.5310 hc         1 NQW       0.046033
     47 H14        -26.2960    11.3970    15.3650 hn         1 NQW       0.511000
     48 H15        -25.3020     7.9030    15.9270 ha         1 NQW       0.136000
     49 H16        -23.9870     7.2060    17.9220 ha         1 NQW       0.124000
     50 H17        -21.4300     8.2200    20.8960 h1         1 NQW       0.051033
     51 H18        -23.0330     7.4340    21.0040 h1         1 NQW       0.051033
     52 H19        -22.0500     7.2670    19.5200 h1         1 NQW       0.051033
     53 H20        -24.8650    12.0590    17.0740 ha         1 NQW       0.124000
     54 H21        -23.0730    13.0580    20.5360 h1         1 NQW       0.061700
     55 H22        -24.2280    13.2070    19.2040 h1         1 NQW       0.061700
     56 H23        -22.3380    13.0390    17.5530 hc         1 NQW       0.061700
     57 H24        -21.1970    12.8610    18.8750 hc         1 NQW       0.061700
     58 H25        -21.5130    16.2280    19.9790 ho         1 NQW       0.440000
     59 H26        -19.8360    14.8080    18.0950 hc         1 NQW       0.043200
     60 H27        -20.9260    15.0300    16.7130 hc         1 NQW       0.043200
     61 H28        -20.5940    16.3870    17.8060 hc         1 NQW       0.043200
     62 H29        -24.0710    15.4540    18.8760 hc         1 NQW       0.043200
     63 H30        -23.0610    16.7180    18.1610 hc         1 NQW       0.043200
     64 H31        -23.5410    15.3170    17.1860 hc         1 NQW       0.043200
@<TRIPOS>BOND
     1     1     2 1   
     2     2     3 ar  
     3     2    14 ar  
     4     3     4 ar  
     5     3    34 1   
     6     4     5 ar  
     7     5     6 1   
     8     5    15 ar  
     9     6     7 1   
    10     6     8 1   
    11     7    12 1   
    12     7    35 1   
    13     7    36 1   
    14     8     9 1   
    15     8    37 1   
    16     8    38 1   
    17     9    10 1   
    18     9    11 1   
    19     9    39 1   
    20    10    40 1   
    21    10    41 1   
    22    10    42 1   
    23    11    12 1   
    24    12    13 1   
    25    12    43 1   
    26    13    44 1   
    27    13    45 1   
    28    13    46 1   
    29    14    15 ar  
    30    14    16 1   
    31    16    17 1   
    32    16    47 1   
    33    17    18 ar  
    34    17    27 ar  
    35    18    19 ar  
    36    18    48 1   
    37    19    20 ar  
    38    19    49 1   
    39    20    21 1   
    40    20    26 ar  
    41    21    22 1   
    42    21    23 1   
    43    22    50 1   
    44    22    51 1   
    45    22    52 1   
    46    23    24 2   
    47    23    25 1   
    48    25    26 1   
    49    25    28 1   
    50    26    27 ar  
    51    27    53 1   
    52    28    29 1   
    53    28    54 1   
    54    28    55 1   
    55    29    30 1   
    56    29    56 1   
    57    29    57 1   
    58    30    31 1   
    59    30    32 1   
    60    30    33 1   
    61    31    58 1   
    62    32    59 1   
    63    32    60 1   
    64    32    61 1   
    65    33    62 1   
    66    33    63 1   
    67    33    64 1   
@<TRIPOS>SUBSTRUCTURE
     1 NQW         1 TEMP              0 ****  ****    0 ROOT
