@<TRIPOS>MOLECULE
NQX
   60    63     1     0     0
SMALL
No Charge or Current Charge


@<TRIPOS>ATOM
      1 C10         -1.5780    -3.5080    84.4740 c          1 NQX       0.610600
      2 C13         -3.8680    -3.3730    85.2540 ca         1 NQX       0.264900
      3 C15          0.4580    -4.1700    82.3000 c3         1 NQX      -0.067800
      4 C20          5.5520    -6.1660    81.4900 c6         1 NQX      -0.095900
      5 C21          6.5210    -6.1320    82.7060 c6         1 NQX      -0.072400
      6 C22          6.0000    -5.2350    83.8670 c6         1 NQX      -0.095900
      7 C28         -6.4300    -4.1410    85.0430 ca         1 NQX      -0.218000
      8 C1           2.1670    -2.8050    83.6580 ca         1 NQX      -0.155300
      9 C2           2.4470    -1.9080    84.7020 ca         1 NQX      -0.023000
     10 C3           1.4710    -1.5570    85.6300 ca         1 NQX      -0.186000
     11 C4           0.1910    -2.1350    85.5870 ca         1 NQX       0.133600
     12 C5          -0.1510    -2.9860    84.5150 ca         1 NQX      -0.209600
     13 C6           0.8380    -3.3180    83.5230 ca         1 NQX       0.064700
     14 C8          -2.1690    -2.0720    86.3740 c          1 NQX       0.637000
     15 C14         -0.4170    -0.9780    87.7500 c3         1 NQX       0.088300
     16 C16          3.3500    -3.1260    82.7190 c3         1 NQX       0.240600
     17 C18          3.8040    -4.6380    82.6240 c6         1 NQX      -0.085700
     18 C19          4.7510    -4.8480    81.3920 c6         1 NQX       0.178800
     19 C23          4.4530    -5.2450    83.9280 c6         1 NQX       0.178800
     20 C27         -5.5410    -4.8060    85.9060 ca         1 NQX       0.143800
     21 C29         -5.9320    -3.0570    84.2970 ca         1 NQX       0.143800
     22 C31         -5.9820    -5.9880    86.7480 c3         1 NQX      -0.149400
     23 C32         -6.8120    -2.2800    83.3370 c3         1 NQX      -0.149400
     24 N7          -0.8170    -1.7230    86.5240 n          1 NQX      -0.304000
     25 N9          -2.5070    -2.9650    85.3630 n          1 NQX      -0.375900
     26 N26         -4.2530    -4.4230    86.0120 nb         1 NQX      -0.169000
     27 N30         -4.6450    -2.6700    84.4010 nb         1 NQX      -0.169000
     28 O11         -1.9370    -4.3980    83.7150 o          1 NQX      -0.515000
     29 O12         -3.0300    -1.6270    87.1240 o          1 NQX      -0.551000
     30 O17          3.0670    -2.5480    81.4350 oh         1 NQX      -0.694000
     31 O24          3.9890    -4.8140    80.1870 oh         1 NQX      -0.664000
     32 O25          4.0170    -4.6020    85.1270 oh         1 NQX      -0.664000
     33 H1           0.2830    -5.2140    82.5860 hc         1 NQX       0.065033
     34 H2          -0.4490    -3.7850    81.8210 hc         1 NQX       0.065033
     35 H3           1.2010    -4.1800    81.5020 hc         1 NQX       0.065033
     36 H5           6.1230    -6.3380    80.5680 hc         1 NQX       0.050450
     37 H6           6.6780    -7.1570    83.0670 hc         1 NQX       0.043700
     38 H7           7.5070    -5.7660    82.3880 hc         1 NQX       0.043700
     39 H8           6.3550    -4.2030    83.7320 hc         1 NQX       0.050450
     40 H9           6.4280    -5.5860    84.8170 hc         1 NQX       0.050450
     41 H10         -7.4670    -4.4540    84.9540 ha         1 NQX       0.133000
     42 H11          3.4400    -1.4730    84.8010 ha         1 NQX       0.113000
     43 H12          1.7460    -0.8390    86.3970 ha         1 NQX       0.124000
     44 H13         -1.1870    -1.0300    88.5300 h1         1 NQX       0.058367
     45 H14          0.4990    -1.4130    88.1690 h1         1 NQX       0.058367
     46 H15         -0.2380     0.0750    87.5000 h1         1 NQX       0.058367
     47 H16          4.2340    -2.6050    83.1130 h1         1 NQX       0.034700
     48 H17          2.9030    -5.2330    82.4500 hc         1 NQX       0.080700
     49 H18          5.4820    -4.0250    81.3740 h1         1 NQX       0.035700
     50 H19          4.1490    -6.3020    83.9750 h1         1 NQX       0.035700
     51 H20         -5.6990    -6.9330    86.2700 hc         1 NQX       0.058700
     52 H21         -5.5220    -5.9630    87.7430 hc         1 NQX       0.058700
     53 H22         -7.0690    -5.9950    86.8870 hc         1 NQX       0.058700
     54 H23         -6.5800    -1.2080    83.3610 hc         1 NQX       0.058700
     55 H24         -6.6700    -2.6310    82.3080 hc         1 NQX       0.058700
     56 H25         -7.8730    -2.3930    83.5870 hc         1 NQX       0.058700
     57 H26          2.7920    -1.6210    81.6070 ho         1 NQX       0.455000
     58 H27          3.4730    -3.9730    80.2780 ho         1 NQX       0.453500
     59 H28          4.3660    -5.1320    85.8760 ho         1 NQX       0.453500
     60 H4           4.8570    -7.0120    81.5880 hc         1 NQX       0.050450
@<TRIPOS>BOND
     1     1    12 1   
     2     1    25 1   
     3     1    28 2   
     4     2    25 1   
     5     2    26 ar  
     6     2    27 ar  
     7     3    13 1   
     8     3    33 1   
     9     3    34 1   
    10     3    35 1   
    11     4     5 1   
    12     4    18 1   
    13     4    36 1   
    14     4    60 1   
    15     5     6 1   
    16     5    37 1   
    17     5    38 1   
    18     6    19 1   
    19     6    39 1   
    20     6    40 1   
    21     7    20 ar  
    22     7    21 ar  
    23     7    41 1   
    24     8     9 ar  
    25     8    13 ar  
    26     8    16 1   
    27     9    10 ar  
    28     9    42 1   
    29    10    11 ar  
    30    10    43 1   
    31    11    12 ar  
    32    11    24 1   
    33    12    13 ar  
    34    14    24 1   
    35    14    25 1   
    36    14    29 2   
    37    15    24 1   
    38    15    44 1   
    39    15    45 1   
    40    15    46 1   
    41    16    17 1   
    42    16    30 1   
    43    16    47 1   
    44    17    18 1   
    45    17    19 1   
    46    17    48 1   
    47    18    31 1   
    48    18    49 1   
    49    19    32 1   
    50    19    50 1   
    51    20    22 1   
    52    20    26 ar  
    53    21    23 1   
    54    21    27 ar  
    55    22    51 1   
    56    22    52 1   
    57    22    53 1   
    58    23    54 1   
    59    23    55 1   
    60    23    56 1   
    61    30    57 1   
    62    31    58 1   
    63    32    59 1   
@<TRIPOS>SUBSTRUCTURE
     1 NQX         1 TEMP              0 ****  ****    0 ROOT
