@<TRIPOS>MOLECULE
NQX
   60    63     1     0     0
SMALL
abcg2


@<TRIPOS>ATOM
      1 C10         -1.5260    -3.3820    84.3420 c          1 NQX       0.610600
      2 C13         -3.7730    -3.3470    85.2410 ca         1 NQX       0.264900
      3 C15          0.4580    -4.0270    82.2400 c3         1 NQX      -0.067800
      4 C20          5.5480    -6.0840    81.5720 c6         1 NQX      -0.095900
      5 C21          6.4190    -5.9970    82.8390 c6         1 NQX      -0.072400
      6 C22          5.6930    -5.2640    83.9860 c6         1 NQX      -0.095900
      7 C28         -6.2550    -4.2030    85.1090 ca         1 NQX      -0.218000
      8 C1           2.1600    -2.8580    83.6910 ca         1 NQX      -0.155300
      9 C2           2.4570    -2.0560    84.7930 ca         1 NQX      -0.023000
     10 C3           1.5020    -1.6480    85.6980 ca         1 NQX      -0.186000
     11 C4           0.1820    -2.0690    85.5350 ca         1 NQX       0.133600
     12 C5          -0.1490    -2.8930    84.4360 ca         1 NQX      -0.209600
     13 C6           0.8360    -3.2560    83.4790 ca         1 NQX       0.064700
     14 C8          -2.0990    -2.0340    86.3610 c          1 NQX       0.637000
     15 C14         -0.4140    -0.7760    87.5590 c3         1 NQX       0.088300
     16 C16          3.3290    -3.2110    82.7870 c3         1 NQX       0.240600
     17 C18          3.6560    -4.7030    82.5800 c6         1 NQX      -0.085700
     18 C19          4.6930    -4.8380    81.4320 c6         1 NQX       0.178800
     19 C23          4.1840    -5.4250    83.8390 c6         1 NQX       0.178800
     20 C27         -5.3200    -4.8580    85.9030 ca         1 NQX       0.143800
     21 C29         -5.8510    -3.0860    84.3870 ca         1 NQX       0.143800
     22 C31         -5.6610    -6.0650    86.7160 c3         1 NQX      -0.149400
     23 C32         -6.7810    -2.3220    83.5010 c3         1 NQX      -0.149400
     24 N7          -0.7860    -1.6600    86.4530 n          1 NQX      -0.304000
     25 N9          -2.4070    -2.8840    85.3080 n          1 NQX      -0.375900
     26 N26         -4.0530    -4.4160    85.9620 nb         1 NQX      -0.169000
     27 N30         -4.5800    -2.6530    84.4630 nb         1 NQX      -0.169000
     28 O11         -1.9610    -4.1840    83.5280 o          1 NQX      -0.515000
     29 O12         -2.9690    -1.6700    87.1400 o          1 NQX      -0.551000
     30 O17          3.1440    -2.6380    81.4710 oh         1 NQX      -0.694000
     31 O24          4.0490    -4.8680    80.1550 oh         1 NQX      -0.664000
     32 O25          3.4760    -4.9760    84.9970 oh         1 NQX      -0.664000
     33 H1           0.2470    -5.0720    82.4730 hc         1 NQX       0.065033
     34 H2          -0.4480    -3.6210    81.7960 hc         1 NQX       0.065033
     35 H3           1.2520    -3.9800    81.5060 hc         1 NQX       0.065033
     36 H5           6.1760    -6.1830    80.6840 hc         1 NQX       0.050450
     37 H6           6.6910    -7.0050    83.1560 hc         1 NQX       0.043700
     38 H7           7.3510    -5.4760    82.6090 hc         1 NQX       0.043700
     39 H8           5.9440    -4.2000    83.9900 hc         1 NQX       0.050450
     40 H9           6.0050    -5.6680    84.9520 hc         1 NQX       0.050450
     41 H10         -7.2760    -4.5550    85.0560 ha         1 NQX       0.133000
     42 H11          3.4820    -1.7400    84.9450 ha         1 NQX       0.113000
     43 H12          1.7890    -1.0160    86.5220 ha         1 NQX       0.124000
     44 H13         -1.3070    -0.5650    88.1330 h1         1 NQX       0.058367
     45 H14          0.3230    -1.2640    88.1970 h1         1 NQX       0.058367
     46 H15         -0.0010     0.1550    87.1720 h1         1 NQX       0.058367
     47 H16          4.2170    -2.7480    83.2270 h1         1 NQX       0.034700
     48 H17          2.7580    -5.2260    82.2540 hc         1 NQX       0.080700
     49 H18          5.3600    -3.9680    81.4680 h1         1 NQX       0.035700
     50 H19          3.9730    -6.4910    83.7020 h1         1 NQX       0.035700
     51 H20         -5.0340    -6.9070    86.4130 hc         1 NQX       0.058700
     52 H21         -5.4560    -5.8710    87.7710 hc         1 NQX       0.058700
     53 H22         -6.7070    -6.3410    86.6010 hc         1 NQX       0.058700
     54 H23         -6.8150    -1.2760    83.8100 hc         1 NQX       0.058700
     55 H24         -6.4160    -2.3470    82.4720 hc         1 NQX       0.058700
     56 H25         -7.7880    -2.7360    83.5300 hc         1 NQX       0.058700
     57 H26          3.0020    -1.6880    81.5710 ho         1 NQX       0.455000
     58 H27          3.5540    -4.0370    80.0940 ho         1 NQX       0.453500
     59 H28          3.7970    -5.4880    85.7490 ho         1 NQX       0.453500
     60 H4           4.9000    -6.9630    81.6040 hc         1 NQX       0.050450
@<TRIPOS>BOND
     1     1    12 1   
     2     1    25 1   
     3     1    28 2   
     4     2    25 1   
     5     2    26 ar  
     6     2    27 ar  
     7     3    13 1   
     8     3    33 1   
     9     3    34 1   
    10     3    35 1   
    11     4     5 1   
    12     4    18 1   
    13     4    36 1   
    14     4    60 1   
    15     5     6 1   
    16     5    37 1   
    17     5    38 1   
    18     6    19 1   
    19     6    39 1   
    20     6    40 1   
    21     7    20 ar  
    22     7    21 ar  
    23     7    41 1   
    24     8     9 ar  
    25     8    13 ar  
    26     8    16 1   
    27     9    10 ar  
    28     9    42 1   
    29    10    11 ar  
    30    10    43 1   
    31    11    12 ar  
    32    11    24 1   
    33    12    13 ar  
    34    14    24 1   
    35    14    25 1   
    36    14    29 2   
    37    15    24 1   
    38    15    44 1   
    39    15    45 1   
    40    15    46 1   
    41    16    17 1   
    42    16    30 1   
    43    16    47 1   
    44    17    18 1   
    45    17    19 1   
    46    17    48 1   
    47    18    31 1   
    48    18    49 1   
    49    19    32 1   
    50    19    50 1   
    51    20    22 1   
    52    20    26 ar  
    53    21    23 1   
    54    21    27 ar  
    55    22    51 1   
    56    22    52 1   
    57    22    53 1   
    58    23    54 1   
    59    23    55 1   
    60    23    56 1   
    61    30    57 1   
    62    31    58 1   
    63    32    59 1   
@<TRIPOS>SUBSTRUCTURE
     1 NQX         1 TEMP              0 ****  ****    0 ROOT
