@<TRIPOS>MOLECULE
NQY
   69    73     1     0     0
SMALL
No Charge or Current Charge


@<TRIPOS>ATOM
      1 C4          53.1960   -33.7420    -8.8310 ca         1 NQY      -0.049000
      2 C14         62.7350   -27.1480   -13.6590 c6         1 NQY       0.168800
      3 C5          54.2850   -32.8630    -8.8760 ca         1 NQY      -0.246000
      4 C6          54.5320   -32.0420    -7.7730 ca         1 NQY       0.644900
      5 C11         60.2690   -29.8570   -10.7030 c          1 NQY       0.616700
      6 C7          56.6670   -30.8050    -8.4300 ca         1 NQY       0.321000
      7 C8          57.3690   -31.7980    -9.1310 ca         1 NQY      -0.150000
      8 C9          58.5250   -31.4790    -9.8610 ca         1 NQY      -0.055000
      9 C10         59.0170   -30.1560    -9.8980 ca         1 NQY      -0.151600
     10 C12         61.8750   -28.0390   -11.4320 c6         1 NQY       0.108700
     11 C13         61.5250   -27.7560   -12.9120 c6         1 NQY      -0.091900
     12 N1          51.2300   -34.6100    -7.5500 n          1 NQY      -0.194400
     13 N2          55.5220   -31.1170    -7.6880 nu         1 NQY      -0.942900
     14 C3          52.3830   -33.7310    -7.6780 ca         1 NQY      -0.176000
     15 N3          60.7060   -28.5500   -10.7060 ns         1 NQY      -0.499900
     16 C1          50.3760   -34.4920    -6.4310 c          1 NQY       0.569000
     17 C16         63.5760   -26.1480   -11.5730 c6         1 NQY       0.168800
     18 C17         62.3840   -26.7330   -10.7800 c6         1 NQY      -0.091900
     19 C18         58.3250   -29.1560    -9.1680 ca         1 NQY      -0.144000
     20 C19         57.1600   -29.4750    -8.4290 ca         1 NQY       0.077100
     21 C2          50.7350   -35.3440    -8.7400 c3         1 NQY       0.081300
     22 C20         56.8890   -27.1370    -7.6330 c3         1 NQY       0.151900
     23 C21         52.7630   -32.8660    -6.6060 ca         1 NQY       0.639900
     24 C22         51.0420   -33.9430    -5.1360 c6         1 NQY       0.142500
     25 C23         51.7850   -35.0710    -4.3610 c6         1 NQY      -0.097400
     26 C24         52.3410   -34.5790    -2.9920 c6         1 NQY      -0.075400
     27 C25         52.2500   -33.0370    -2.8390 c6         1 NQY      -0.102400
     28 C26         52.7120   -32.3130    -4.1310 c6         1 NQY       0.212800
     29 N4          63.2130   -25.9050   -12.9950 n3         1 NQY      -0.719600
     30 N5          53.8010   -32.0170    -6.6730 nb         1 NQY      -0.800000
     31 N6          52.0620   -32.8590    -5.3750 nh         1 NQY      -0.763300
     32 O1          49.1650   -34.6870    -6.5030 o          1 NQY      -0.548000
     33 O2          60.8700   -30.7260   -11.3210 o          1 NQY      -0.605100
     34 O3          56.4730   -28.5140    -7.6950 os         1 NQY      -0.352100
     35 H1          52.9910   -34.3820    -9.6850 ha         1 NQY       0.121000
     36 H2          63.5440   -27.8930   -13.7010 h1         1 NQY       0.033700
     37 H3          62.4370   -26.9340   -14.6970 h1         1 NQY       0.033700
     38 H4          54.9020   -32.8050    -9.7650 ha         1 NQY       0.134000
     39 H5          57.0390   -32.8310    -9.0960 ha         1 NQY       0.131000
     40 H6          59.0440   -32.2720   -10.3960 ha         1 NQY       0.138000
     41 H7          62.6770   -28.7930   -11.3880 h1         1 NQY       0.078700
     42 H8          60.6730   -27.0670   -12.9740 hc         1 NQY       0.051950
     43 H9          61.2170   -28.6840   -13.4110 hc         1 NQY       0.051950
     44 H10         55.2950   -30.4360    -6.9720 hn         1 NQY       0.520000
     45 H11         60.1550   -27.8930   -10.1720 hn         1 NQY       0.309500
     46 H12         64.5900   -24.3020   -13.2710 h1         1 NQY       0.031033
     47 H13         65.1900   -25.8930   -13.7980 h1         1 NQY       0.031033
     48 H14         63.9830   -25.0230   -14.7760 h1         1 NQY       0.031033
     49 H15         64.4270   -26.8440   -11.5100 h1         1 NQY       0.033700
     50 H16         63.8910   -25.2090   -11.0940 h1         1 NQY       0.033700
     51 H17         61.5760   -25.9900   -10.7370 hc         1 NQY       0.051950
     52 H18         62.6920   -26.9260    -9.7440 hc         1 NQY       0.051950
     53 H19         58.6920   -28.1350    -9.1720 ha         1 NQY       0.117000
     54 H20         49.8750   -35.9760    -8.4860 h1         1 NQY       0.049700
     55 H21         50.4370   -34.6300    -9.5180 h1         1 NQY       0.049700
     56 H22         51.5260   -35.9970    -9.1280 h1         1 NQY       0.049700
     57 H23         56.2030   -26.5630    -6.9980 h1         1 NQY       0.042033
     58 H24         57.8960   -27.0520    -7.2070 h1         1 NQY       0.042033
     59 H25         56.8870   -26.6830    -8.6320 h1         1 NQY       0.042033
     60 H26         50.2070   -33.5600    -4.5300 h1         1 NQY       0.092700
     61 H27         51.1040   -35.9170    -4.1960 hc         1 NQY       0.057700
     62 H28         52.6090   -35.4600    -4.9760 hc         1 NQY       0.057700
     63 H29         51.7930   -35.0590    -2.1690 hc         1 NQY       0.049200
     64 H30         53.3870   -34.9000    -2.8900 hc         1 NQY       0.049200
     65 H31         52.8600   -32.7050    -1.9880 hc         1 NQY       0.048200
     66 H32         51.2180   -32.7450    -2.6040 hc         1 NQY       0.048200
     67 H33         53.8050   -32.4330    -4.1860 h1         1 NQY       0.065700
     68 H34         52.5110   -31.2350    -4.0380 h1         1 NQY       0.065700
     69 C15         64.3030   -25.2480   -13.7490 c3         1 NQY       0.154100
@<TRIPOS>BOND
     1     1     3 ar  
     2     1    14 ar  
     3     1    35 1   
     4     2    11 1   
     5     2    29 1   
     6     2    36 1   
     7     2    37 1   
     8     3     4 ar  
     9     3    38 1   
    10     4    13 1   
    11     4    30 ar  
    12     5     9 1   
    13     5    15 1   
    14     5    33 2   
    15     6     7 ar  
    16     6    13 1   
    17     6    20 ar  
    18     7     8 ar  
    19     7    39 1   
    20     8     9 ar  
    21     8    40 1   
    22     9    19 ar  
    23    10    11 1   
    24    10    15 1   
    25    10    18 1   
    26    10    41 1   
    27    11    42 1   
    28    11    43 1   
    29    12    14 1   
    30    12    16 1   
    31    12    21 1   
    32    13    44 1   
    33    14    23 ar  
    34    15    45 1   
    35    16    24 1   
    36    16    32 2   
    37    17    18 1   
    38    17    29 1   
    39    17    49 1   
    40    17    50 1   
    41    18    51 1   
    42    18    52 1   
    43    19    20 ar  
    44    19    53 1   
    45    20    34 1   
    46    21    54 1   
    47    21    55 1   
    48    21    56 1   
    49    22    34 1   
    50    22    57 1   
    51    22    58 1   
    52    22    59 1   
    53    23    30 ar  
    54    23    31 1   
    55    24    25 1   
    56    24    31 1   
    57    24    60 1   
    58    25    26 1   
    59    25    61 1   
    60    25    62 1   
    61    26    27 1   
    62    26    63 1   
    63    26    64 1   
    64    27    28 1   
    65    27    65 1   
    66    27    66 1   
    67    28    31 1   
    68    28    67 1   
    69    28    68 1   
    70    29    69 1   
    71    46    69 1   
    72    47    69 1   
    73    48    69 1   
@<TRIPOS>SUBSTRUCTURE
     1 NQY         1 TEMP              0 ****  ****    0 ROOT
