@<TRIPOS>MOLECULE
NQY
   69    73     1     0     0
SMALL
abcg2


@<TRIPOS>ATOM
      1 C4          53.3750   -33.4200    -8.7680 ca         1 NQY      -0.049000
      2 C14         62.6180   -27.6010   -13.6650 c6         1 NQY       0.168800
      3 C5          54.4850   -32.5860    -8.6800 ca         1 NQY      -0.246000
      4 C6          54.6640   -31.8770    -7.4990 ca         1 NQY       0.644900
      5 C11         60.3850   -29.8010   -10.2320 c          1 NQY       0.616700
      6 C7          56.8160   -30.7220    -8.0110 ca         1 NQY       0.321000
      7 C8          57.4880   -31.6890    -8.7520 ca         1 NQY      -0.150000
      8 C9          58.6370   -31.3770    -9.4630 ca         1 NQY      -0.055000
      9 C10         59.1500   -30.0900    -9.4470 ca         1 NQY      -0.151600
     10 C12         61.6980   -28.0620   -11.3810 c6         1 NQY       0.108700
     11 C13         61.4470   -28.1730   -12.8820 c6         1 NQY      -0.091900
     12 N1          51.3040   -34.2900    -7.8020 n          1 NQY      -0.194400
     13 N2          55.6750   -30.9680    -7.2740 nu         1 NQY      -0.942900
     14 C3          52.4860   -33.5330    -7.7210 ca         1 NQY      -0.176000
     15 N3          60.5670   -28.5200   -10.5990 ns         1 NQY      -0.499900
     16 C1          50.5720   -34.5790    -6.7010 c          1 NQY       0.569000
     17 C16         63.1870   -26.1140   -11.8760 c6         1 NQY       0.168800
     18 C17         62.0380   -26.6220   -11.0190 c6         1 NQY      -0.091900
     19 C18         58.5110   -29.1160    -8.6720 ca         1 NQY      -0.144000
     20 C19         57.3630   -29.4190    -7.9630 ca         1 NQY       0.077100
     21 C2          50.8920   -34.7930    -9.0980 c3         1 NQY       0.081300
     22 C20         57.1970   -27.2320    -7.0470 c3         1 NQY       0.151900
     23 C21         52.7680   -32.7850    -6.5560 ca         1 NQY       0.639900
     24 C22         51.0960   -34.0600    -5.3830 c6         1 NQY       0.142500
     25 C23         51.8730   -35.1630    -4.6350 c6         1 NQY      -0.097400
     26 C24         52.7830   -34.5270    -3.5730 c6         1 NQY      -0.075400
     27 C25         52.1990   -33.2060    -3.0880 c6         1 NQY      -0.102400
     28 C26         52.1560   -32.1940    -4.2400 c6         1 NQY       0.212800
     29 N4          62.8830   -26.2260   -13.2890 n3         1 NQY      -0.719600
     30 N5          53.8190   -31.9900    -6.4740 nb         1 NQY      -0.800000
     31 N6          51.8990   -32.8630    -5.5110 nh         1 NQY      -0.763300
     32 O1          49.5620   -35.2620    -6.7270 o          1 NQY      -0.548000
     33 O2          61.1770   -30.6920   -10.5170 o          1 NQY      -0.605100
     34 O3          56.6940   -28.5460    -7.1850 os         1 NQY      -0.352100
     35 H1          53.2140   -33.9620    -9.6910 ha         1 NQY       0.121000
     36 H2          63.5070   -28.2410   -13.5120 h1         1 NQY       0.033700
     37 H3          62.3930   -27.6350   -14.7340 h1         1 NQY       0.033700
     38 H4          55.1380   -32.4770    -9.5310 ha         1 NQY       0.134000
     39 H5          57.1270   -32.7070    -8.7630 ha         1 NQY       0.131000
     40 H6          59.1310   -32.1530   -10.0330 ha         1 NQY       0.138000
     41 H7          62.5520   -28.6940   -11.1230 h1         1 NQY       0.078700
     42 H8          60.5330   -27.6290   -13.1400 hc         1 NQY       0.051950
     43 H9          61.2950   -29.2170   -13.1620 hc         1 NQY       0.051950
     44 H10         55.5090   -30.3630    -6.4840 hn         1 NQY       0.520000
     45 H11         59.7980   -27.8750   -10.5010 hn         1 NQY       0.309500
     46 H12         64.0750   -24.6010   -13.8350 h1         1 NQY       0.031033
     47 H13         64.8970   -26.1600   -13.9990 h1         1 NQY       0.031033
     48 H14         63.6460   -25.6850   -15.1560 h1         1 NQY       0.031033
     49 H15         64.1060   -26.6690   -11.6120 h1         1 NQY       0.033700
     50 H16         63.3800   -25.0640   -11.6410 h1         1 NQY       0.033700
     51 H17         61.1620   -25.9830   -11.1710 hc         1 NQY       0.051950
     52 H18         62.3110   -26.5520    -9.9640 hc         1 NQY       0.051950
     53 H19         58.9240   -28.1190    -8.6040 ha         1 NQY       0.117000
     54 H20         49.8820   -35.1810    -9.0310 h1         1 NQY       0.049700
     55 H21         50.9110   -33.9900    -9.8330 h1         1 NQY       0.049700
     56 H22         51.5500   -35.5940    -9.4380 h1         1 NQY       0.049700
     57 H23         56.5260   -26.7170    -6.3650 h1         1 NQY       0.042033
     58 H24         58.2050   -27.2240    -6.6260 h1         1 NQY       0.042033
     59 H25         57.2070   -26.6990    -8.0010 h1         1 NQY       0.042033
     60 H26         50.2110   -33.7930    -4.8020 h1         1 NQY       0.092700
     61 H27         51.1560   -35.8440    -4.1740 hc         1 NQY       0.057700
     62 H28         52.4690   -35.7520    -5.3360 hc         1 NQY       0.057700
     63 H29         52.9200   -35.2170    -2.7400 hc         1 NQY       0.049200
     64 H30         53.7780   -34.3480    -3.9900 hc         1 NQY       0.049200
     65 H31         52.7940   -32.7900    -2.2740 hc         1 NQY       0.048200
     66 H32         51.1980   -33.3740    -2.6810 hc         1 NQY       0.048200
     67 H33         53.1090   -31.6780    -4.3190 h1         1 NQY       0.065700
     68 H34         51.3860   -31.4380    -4.0640 h1         1 NQY       0.065700
     69 C15         63.9280   -25.6480   -14.1030 c3         1 NQY       0.154100
@<TRIPOS>BOND
     1     1     3 ar  
     2     1    14 ar  
     3     1    35 1   
     4     2    11 1   
     5     2    29 1   
     6     2    36 1   
     7     2    37 1   
     8     3     4 ar  
     9     3    38 1   
    10     4    13 1   
    11     4    30 ar  
    12     5     9 1   
    13     5    15 1   
    14     5    33 2   
    15     6     7 ar  
    16     6    13 1   
    17     6    20 ar  
    18     7     8 ar  
    19     7    39 1   
    20     8     9 ar  
    21     8    40 1   
    22     9    19 ar  
    23    10    11 1   
    24    10    15 1   
    25    10    18 1   
    26    10    41 1   
    27    11    42 1   
    28    11    43 1   
    29    12    14 1   
    30    12    16 1   
    31    12    21 1   
    32    13    44 1   
    33    14    23 ar  
    34    15    45 1   
    35    16    24 1   
    36    16    32 2   
    37    17    18 1   
    38    17    29 1   
    39    17    49 1   
    40    17    50 1   
    41    18    51 1   
    42    18    52 1   
    43    19    20 ar  
    44    19    53 1   
    45    20    34 1   
    46    21    54 1   
    47    21    55 1   
    48    21    56 1   
    49    22    34 1   
    50    22    57 1   
    51    22    58 1   
    52    22    59 1   
    53    23    30 ar  
    54    23    31 1   
    55    24    25 1   
    56    24    31 1   
    57    24    60 1   
    58    25    26 1   
    59    25    61 1   
    60    25    62 1   
    61    26    27 1   
    62    26    63 1   
    63    26    64 1   
    64    27    28 1   
    65    27    65 1   
    66    27    66 1   
    67    28    31 1   
    68    28    67 1   
    69    28    68 1   
    70    29    69 1   
    71    46    69 1   
    72    47    69 1   
    73    48    69 1   
@<TRIPOS>SUBSTRUCTURE
     1 NQY         1 TEMP              0 ****  ****    0 ROOT
