@<TRIPOS>MOLECULE
NQZ
   66    69     1     0     0
SMALL
abcg2


@<TRIPOS>ATOM
      1 CL         -28.2590    11.6800    13.4190 cl         1 NQZ      -0.187000
      2 C22        -27.0910    10.5080    12.9210 ca         1 NQZ      -0.125000
      3 C23        -27.0610    10.0290    11.6340 ca         1 NQZ       0.187900
      4 N5         -26.1860     9.1250    11.2140 nb         1 NQZ      -0.262000
      5 C7         -25.3050     8.7000    12.1230 ca         1 NQZ       0.415900
      6 N          -24.3600     7.8030    11.7250 nh         1 NQZ      -0.745300
      7 C2         -23.5400     7.1260    12.7080 c6         1 NQZ       0.210800
      8 C3         -24.5430     7.0250    10.5160 c6         1 NQZ       0.210800
      9 C4         -25.2320     5.6900    10.8240 c6         1 NQZ      -0.138700
     10 C5         -25.4090     4.8570     9.5600 c3         1 NQZ      -0.082600
     11 C6         -24.4650     4.9620    11.9170 c6         1 NQZ       0.181000
     12 F          -23.2720     4.5090    11.4080 f          1 NQZ      -0.123000
     13 F1         -25.1460     3.8280    12.2780 f          1 NQZ      -0.123000
     14 C1         -24.1890     5.8100    13.1490 c6         1 NQZ      -0.138700
     15 C          -23.3450     5.0960    14.1970 c3         1 NQZ      -0.082600
     16 C8         -26.1340     9.9890    13.8200 ca         1 NQZ       0.440900
     17 N1         -25.2570     9.1000    13.3910 nb         1 NQZ      -0.316000
     18 N2         -26.1020    10.3830    15.1110 nu         1 NQZ      -0.938900
     19 C9         -25.1900     9.9580    16.0950 ca         1 NQZ       0.296000
     20 C14        -24.8540     8.6130    16.2560 ca         1 NQZ      -0.105000
     21 C13        -23.9620     8.2100    17.2460 ca         1 NQZ      -0.096000
     22 C12        -23.4360     9.1760    18.0790 ca         1 NQZ      -0.007400
     23 N3         -22.5470     9.1040    19.1300 n          1 NQZ      -0.290000
     24 C15        -21.9430     7.8960    19.6270 c3         1 NQZ       0.105300
     25 C16        -22.3460    10.3570    19.6560 c          1 NQZ       0.595000
     26 O          -21.6220    10.6550    20.5900 o          1 NQZ      -0.558000
     27 N4         -23.1310    11.2170    18.9200 n          1 NQZ      -0.293000
     28 C11        -23.7970    10.5180    17.9390 ca         1 NQZ       0.023600
     29 C10        -24.6630    10.9320    16.9470 ca         1 NQZ      -0.149000
     30 C17        -23.1860    12.6460    19.1220 c3         1 NQZ       0.119000
     31 C18        -22.3050    13.4030    18.1330 c3         1 NQZ      -0.129400
     32 C19        -22.3800    14.9340    18.2530 c3         1 NQZ       0.190000
     33 O1         -21.9960    15.3480    19.5590 oh         1 NQZ      -0.657000
     34 C21        -21.3640    15.5510    17.3000 c3         1 NQZ      -0.104600
     35 C20        -23.7790    15.4510    17.9210 c3         1 NQZ      -0.104600
     36 H1         -27.7810    10.3900    10.9080 h4         1 NQZ       0.033100
     37 H2         -22.5580     6.9360    12.2660 h1         1 NQZ       0.079700
     38 H3         -23.3860     7.7690    13.5700 h1         1 NQZ       0.079700
     39 H4         -23.5630     6.8510    10.0640 h1         1 NQZ       0.079700
     40 H5         -25.1360     7.5870     9.8000 h1         1 NQZ       0.079700
     41 H6         -26.2210     5.9200    11.2350 hc         1 NQZ       0.074200
     42 H7         -25.9250     3.9190     9.7600 hc         1 NQZ       0.046700
     43 H8         -26.0080     5.4110     8.8370 hc         1 NQZ       0.046700
     44 H9         -24.4540     4.6260     9.0880 hc         1 NQZ       0.046700
     45 H10        -25.1620     6.0560    13.5900 hc         1 NQZ       0.074200
     46 H11        -23.2390     5.7310    15.0770 hc         1 NQZ       0.046700
     47 H12        -23.8040     4.1640    14.5220 hc         1 NQZ       0.046700
     48 H13        -22.3420     4.8740    13.8310 hc         1 NQZ       0.046700
     49 H14        -26.6930    11.1600    15.3620 hn         1 NQZ       0.513000
     50 H15        -25.2900     7.8690    15.6090 ha         1 NQZ       0.134000
     51 H16        -23.7070     7.1640    17.3550 ha         1 NQZ       0.125000
     52 H17        -21.1890     8.1510    20.3650 h1         1 NQZ       0.051700
     53 H18        -22.6860     7.2500    20.0940 h1         1 NQZ       0.051700
     54 H19        -21.4610     7.3510    18.8150 h1         1 NQZ       0.051700
     55 H20        -24.9250    11.9750    16.8180 ha         1 NQZ       0.125000
     56 H21        -22.8740    12.8400    20.1480 h1         1 NQZ       0.062200
     57 H22        -24.2320    12.9510    19.0450 h1         1 NQZ       0.062200
     58 H23        -22.5770    13.1190    17.1120 hc         1 NQZ       0.061200
     59 H24        -21.2680    13.0850    18.2790 hc         1 NQZ       0.061200
     60 H25        -22.7180    15.1710    20.1710 ho         1 NQZ       0.440000
     61 H26        -20.3500    15.2240    17.5380 hc         1 NQZ       0.043367
     62 H27        -21.5770    15.2580    16.2710 hc         1 NQZ       0.043367
     63 H28        -21.3940    16.6400    17.3510 hc         1 NQZ       0.043367
     64 H29        -24.5320    15.0870    18.6230 hc         1 NQZ       0.043367
     65 H30        -23.8010    16.5410    17.9530 hc         1 NQZ       0.043367
     66 H31        -24.0860    15.1400    16.9210 hc         1 NQZ       0.043367
@<TRIPOS>BOND
     1     1     2 1   
     2     2     3 ar  
     3     2    16 ar  
     4     3     4 ar  
     5     3    36 1   
     6     4     5 ar  
     7     5     6 1   
     8     5    17 ar  
     9     6     7 1   
    10     6     8 1   
    11     7    14 1   
    12     7    37 1   
    13     7    38 1   
    14     8     9 1   
    15     8    39 1   
    16     8    40 1   
    17     9    10 1   
    18     9    11 1   
    19     9    41 1   
    20    10    42 1   
    21    10    43 1   
    22    10    44 1   
    23    11    12 1   
    24    11    13 1   
    25    11    14 1   
    26    14    15 1   
    27    14    45 1   
    28    15    46 1   
    29    15    47 1   
    30    15    48 1   
    31    16    17 ar  
    32    16    18 1   
    33    18    19 1   
    34    18    49 1   
    35    19    20 ar  
    36    19    29 ar  
    37    20    21 ar  
    38    20    50 1   
    39    21    22 ar  
    40    21    51 1   
    41    22    23 1   
    42    22    28 ar  
    43    23    24 1   
    44    23    25 1   
    45    24    52 1   
    46    24    53 1   
    47    24    54 1   
    48    25    26 2   
    49    25    27 1   
    50    27    28 1   
    51    27    30 1   
    52    28    29 ar  
    53    29    55 1   
    54    30    31 1   
    55    30    56 1   
    56    30    57 1   
    57    31    32 1   
    58    31    58 1   
    59    31    59 1   
    60    32    33 1   
    61    32    34 1   
    62    32    35 1   
    63    33    60 1   
    64    34    61 1   
    65    34    62 1   
    66    34    63 1   
    67    35    64 1   
    68    35    65 1   
    69    35    66 1   
@<TRIPOS>SUBSTRUCTURE
     1 NQZ         1 TEMP              0 ****  ****    0 ROOT
