@<TRIPOS>MOLECULE
NQZ
   66    69     1     0     0
SMALL
No Charge or Current Charge


@<TRIPOS>ATOM
      1 Cl         -28.0570    11.8350    13.3560 cl         1 NQZ      -0.187000
      2 C22        -26.9910    10.5540    12.7650 ca         1 NQZ      -0.125000
      3 C23        -27.1390    10.0420    11.4670 ca         1 NQZ       0.187900
      4 N5         -26.3340     9.0710    10.9970 nb         1 NQZ      -0.262000
      5 C7         -25.3730     8.6140    11.8280 ca         1 NQZ       0.415900
      6 N          -24.5190     7.5860    11.3430 nh         1 NQZ      -0.745300
      7 C2         -23.4320     6.9970    12.1820 c6         1 NQZ       0.210800
      8 C3         -24.9290     6.6790    10.2300 c6         1 NQZ       0.210800
      9 C4         -25.5010     5.3620    10.8180 c6         1 NQZ      -0.138700
     10 C5         -25.9800     4.3970     9.6930 c3         1 NQZ      -0.082600
     11 C6         -24.4680     4.7110    11.7850 c6         1 NQZ       0.181000
     12 F          -23.3800     4.2060    11.0440 f          1 NQZ      -0.123000
     13 F1         -25.0610     3.6040    12.4210 f          1 NQZ      -0.123000
     14 C1         -23.9470     5.7040    12.8640 c6         1 NQZ      -0.138700
     15 C          -22.8700     5.0870    13.8040 c3         1 NQZ      -0.082600
     16 C8         -25.9670    10.0030    13.5550 ca         1 NQZ       0.440900
     17 N1         -25.1550     9.0500    13.0830 nb         1 NQZ      -0.316000
     18 N2         -25.7390    10.4640    14.8510 nu         1 NQZ      -0.938900
     19 C9         -24.9090    10.0560    15.9020 ca         1 NQZ       0.296000
     20 C14        -24.5020     8.7060    16.0640 ca         1 NQZ      -0.105000
     21 C13        -23.7160     8.3110    17.1680 ca         1 NQZ      -0.096000
     22 C12        -23.2640     9.3060    18.0430 ca         1 NQZ      -0.007400
     23 N3         -22.7280     9.1750    19.3540 n          1 NQZ      -0.290000
     24 C15        -21.9540     8.0150    19.8300 c3         1 NQZ       0.105300
     25 C16        -22.7670    10.4070    20.0220 c          1 NQZ       0.595000
     26 O          -22.3200    10.6630    21.1320 o          1 NQZ      -0.558000
     27 N4         -23.3850    11.2890    19.1260 n          1 NQZ      -0.293000
     28 C11        -23.6800    10.6230    17.9040 ca         1 NQZ       0.023600
     29 C10        -24.5460    11.0120    16.8730 ca         1 NQZ      -0.149000
     30 C17        -23.4480    12.7480    19.3210 c3         1 NQZ       0.119000
     31 C18        -22.3940    13.5080    18.4820 c3         1 NQZ      -0.129400
     32 C19        -22.3980    15.0520    18.6440 c3         1 NQZ       0.190000
     33 O1         -22.1700    15.3610    20.0180 oh         1 NQZ      -0.657000
     34 C21        -21.2450    15.6770    17.8260 c3         1 NQZ      -0.104600
     35 C20        -23.7500    15.6800    18.2280 c3         1 NQZ      -0.104600
     36 H1         -27.9100    10.4130    10.7930 h4         1 NQZ       0.033100
     37 H2         -22.5610     6.7580    11.5530 h1         1 NQZ       0.079700
     38 H3         -23.0640     7.7040    12.9410 h1         1 NQZ       0.079700
     39 H4         -24.0600     6.4510     9.5930 h1         1 NQZ       0.079700
     40 H5         -25.6730     7.1430     9.5670 h1         1 NQZ       0.079700
     41 H6         -26.3970     5.6170    11.4000 hc         1 NQZ       0.074200
     42 H7         -26.4210     3.4840    10.1100 hc         1 NQZ       0.046700
     43 H8         -26.7460     4.8720     9.0670 hc         1 NQZ       0.046700
     44 H9         -25.1540     4.1000     9.0360 hc         1 NQZ       0.046700
     45 H10        -24.7920     5.9770    13.5110 hc         1 NQZ       0.074200
     46 H11        -22.5690     5.8020    14.5800 hc         1 NQZ       0.046700
     47 H12        -23.2480     4.1930    14.3140 hc         1 NQZ       0.046700
     48 H13        -21.9670     4.8000    13.2510 hc         1 NQZ       0.046700
     49 H14        -26.2500    11.3260    15.0390 hn         1 NQZ       0.513000
     50 H15        -24.8480     7.9430    15.3750 ha         1 NQZ       0.134000
     51 H16        -23.4820     7.2640    17.3390 ha         1 NQZ       0.125000
     52 H17        -21.0990     8.3520    20.4290 h1         1 NQZ       0.051700
     53 H18        -22.5970     7.3740    20.4460 h1         1 NQZ       0.051700
     54 H19        -21.5820     7.4370    18.9750 h1         1 NQZ       0.051700
     55 H20        -24.9260    12.0270    16.8250 ha         1 NQZ       0.125000
     56 H21        -23.3050    12.9740    20.3850 h1         1 NQZ       0.062200
     57 H22        -24.4560    13.0820    19.0450 h1         1 NQZ       0.062200
     58 H23        -22.5410    13.2630    17.4230 hc         1 NQZ       0.061200
     59 H24        -21.4020    13.1240    18.7510 hc         1 NQZ       0.061200
     60 H25        -22.1310    16.3390    20.0890 ho         1 NQZ       0.440000
     61 H26        -20.2750    15.2710    18.1410 hc         1 NQZ       0.043367
     62 H27        -21.3690    15.4640    16.7570 hc         1 NQZ       0.043367
     63 H28        -21.2140    16.7660    17.9510 hc         1 NQZ       0.043367
     64 H29        -24.5650    15.3500    18.8820 hc         1 NQZ       0.043367
     65 H30        -23.7060    16.7750    18.2810 hc         1 NQZ       0.043367
     66 H31        -24.0050    15.4030    17.1980 hc         1 NQZ       0.043367
@<TRIPOS>BOND
     1     1     2 1   
     2     2     3 ar  
     3     2    16 ar  
     4     3     4 ar  
     5     3    36 1   
     6     4     5 ar  
     7     5     6 1   
     8     5    17 ar  
     9     6     7 1   
    10     6     8 1   
    11     7    14 1   
    12     7    37 1   
    13     7    38 1   
    14     8     9 1   
    15     8    39 1   
    16     8    40 1   
    17     9    10 1   
    18     9    11 1   
    19     9    41 1   
    20    10    42 1   
    21    10    43 1   
    22    10    44 1   
    23    11    12 1   
    24    11    13 1   
    25    11    14 1   
    26    14    15 1   
    27    14    45 1   
    28    15    46 1   
    29    15    47 1   
    30    15    48 1   
    31    16    17 ar  
    32    16    18 1   
    33    18    19 1   
    34    18    49 1   
    35    19    20 ar  
    36    19    29 ar  
    37    20    21 ar  
    38    20    50 1   
    39    21    22 ar  
    40    21    51 1   
    41    22    23 1   
    42    22    28 ar  
    43    23    24 1   
    44    23    25 1   
    45    24    52 1   
    46    24    53 1   
    47    24    54 1   
    48    25    26 2   
    49    25    27 1   
    50    27    28 1   
    51    27    30 1   
    52    28    29 ar  
    53    29    55 1   
    54    30    31 1   
    55    30    56 1   
    56    30    57 1   
    57    31    32 1   
    58    31    58 1   
    59    31    59 1   
    60    32    33 1   
    61    32    34 1   
    62    32    35 1   
    63    33    60 1   
    64    34    61 1   
    65    34    62 1   
    66    34    63 1   
    67    35    64 1   
    68    35    65 1   
    69    35    66 1   
@<TRIPOS>SUBSTRUCTURE
     1 NQZ         1 TEMP              0 ****  ****    0 ROOT
