@<TRIPOS>MOLECULE
NR0
   40    42     1     0     0
SMALL
No Charge or Current Charge


@<TRIPOS>ATOM
      1 C10         40.0410    16.5490    23.3220 c5         1 NR0       0.143600
      2 C11         36.5220    17.4890    24.4140 c          1 NR0       0.594100
      3 C12         36.4520    16.6750    25.7310 c3         1 NR0      -0.020400
      4 C14         34.4910    17.5220    27.1990 cc         1 NR0       0.416700
      5 C16         34.2330    15.5780    26.1120 ca         1 NR0       0.140500
      6 C17         33.1100    15.9030    26.8340 ca         1 NR0      -0.097600
      7 C18         32.0150    15.0150    26.7880 ca         1 NR0       0.439900
      8 C21         33.2200    13.6610    25.3890 ca         1 NR0       0.173900
      9 C03         37.7720    18.3470    22.4200 c3         1 NR0      -0.062000
     10 C05         39.0200    17.0640    24.3740 c5         1 NR0       0.096700
     11 C06         39.8330    18.2790    24.9120 c5         1 NR0       0.092500
     12 C08         41.2400    17.6000    25.0550 c5         1 NR0       0.157600
     13 N04         37.7640    17.5840    23.7170 n          1 NR0      -0.360800
     14 N07         39.2980    18.8910    26.1540 n8         1 NR0      -0.997200
     15 N13         35.1070    16.6000    26.3500 na         1 NR0      -0.251300
     16 N15         33.2490    17.1150    27.5280 nd         1 NR0      -0.574100
     17 N20         32.0660    13.8850    26.0650 nb         1 NR0      -0.313000
     18 N22         34.3180    14.4540    25.3720 nb         1 NR0      -0.183000
     19 O01         36.5060    18.1270    20.4090 o          1 NR0      -0.719500
     20 O09         41.2880    16.5430    24.0570 os         1 NR0      -0.475000
     21 O23         35.5130    18.0230    23.9640 o          1 NR0      -0.576100
     22 H102        40.1590    17.2080    22.4540 h1         1 NR0       0.080200
     23 H101        39.8060    15.5380    22.9620 h1         1 NR0       0.080200
     24 H121        36.8030    15.6590    25.5170 h1         1 NR0       0.082700
     25 H122        37.1430    17.1300    26.4490 h1         1 NR0       0.082700
     26 H141        34.9820    18.4310    27.5290 h5         1 NR0       0.058800
     27 H211        33.2700    12.7470    24.7980 h5         1 NR0       0.042100
     28 O02         37.6480    16.4080    21.0260 o          1 NR0      -0.719500
     29 H032        38.7800    18.7110    22.1950 h1         1 NR0       0.035200
     30 H031        37.1500    19.2440    22.5310 h1         1 NR0       0.035200
     31 H051        38.8550    16.2990    25.1410 h1         1 NR0       0.056700
     32 H061        39.8970    19.0790    24.1600 h1         1 NR0       0.044700
     33 H081        41.3700    17.1420    26.0450 h1         1 NR0       0.037200
     34 H082        42.0620    18.3080    24.8880 h1         1 NR0       0.037200
     35 H071        39.9760    19.5720    26.5200 hn         1 NR0       0.393500
     36 H2          38.4860    19.4740    25.9190 hn         1 NR0       0.393500
     37 H191        30.2390    14.4470    27.6270 hn         1 NR0       0.495500
     38 H192        30.8730    15.9620    28.1810 hn         1 NR0       0.495500
     39 C02         37.2640    17.5590    21.1830 c          1 NR0       0.718000
     40 N19         30.8580    15.2370    27.4670 nv         1 NR0      -1.074900
@<TRIPOS>BOND
     1     1    10 1   
     2     1    20 1   
     3     1    22 1   
     4     1    23 1   
     5     2     3 1   
     6     2    13 1   
     7     2    21 2   
     8     3    15 1   
     9     3    24 1   
    10     3    25 1   
    11     4    15 1   
    12     4    16 2   
    13     4    26 1   
    14     5     6 ar  
    15     5    15 1   
    16     5    18 ar  
    17     6     7 ar  
    18     6    16 1   
    19     7    17 ar  
    20     7    40 1   
    21     8    17 ar  
    22     8    18 ar  
    23     8    27 1   
    24     9    13 1   
    25     9    29 1   
    26     9    30 1   
    27     9    39 1   
    28    10    11 1   
    29    10    13 1   
    30    10    31 1   
    31    11    12 1   
    32    11    14 1   
    33    11    32 1   
    34    12    20 1   
    35    12    33 1   
    36    12    34 1   
    37    14    35 1   
    38    14    36 1   
    39    19    39 1   
    40    28    39 1   
    41    37    40 1   
    42    38    40 1   
@<TRIPOS>SUBSTRUCTURE
     1 NR0         1 TEMP              0 ****  ****    0 ROOT
