@<TRIPOS>MOLECULE
NR0
   40    42     1     0     0
SMALL
bcc


@<TRIPOS>ATOM
      1 C10         39.8260    16.5030    23.3550 c5         1 NR0       0.120400
      2 C11         36.4920    17.4110    24.4870 c          1 NR0       0.661100
      3 C12         36.5630    16.6770    25.8310 c3         1 NR0      -0.049700
      4 C14         34.6000    17.4500    27.1800 cc         1 NR0       0.416700
      5 C16         34.3510    15.5650    26.1130 ca         1 NR0       0.468800
      6 C17         33.1940    15.9290    26.7840 ca         1 NR0      -0.228200
      7 C18         32.1040    15.0490    26.6650 ca         1 NR0       0.768200
      8 C21         33.4400    13.7280    25.3340 ca         1 NR0       0.699900
      9 C03         37.5750    18.3720    22.5910 c3         1 NR0      -0.062000
     10 C05         38.9390    17.2470    24.3540 c5         1 NR0       0.096700
     11 C06         39.8710    18.3550    24.8390 c5         1 NR0       0.092500
     12 C08         41.1750    17.5750    24.9270 c5         1 NR0       0.134400
     13 N04         37.6520    17.6890    23.8670 n          1 NR0      -0.427800
     14 N07         39.4510    18.8990    26.1130 n8         1 NR0      -0.886800
     15 N13         35.2520    16.5450    26.3940 na         1 NR0      -0.222000
     16 N15         33.3720    17.1160    27.4480 nd         1 NR0      -0.574100
     17 N20         32.2670    13.9460    25.9250 nb         1 NR0      -0.839000
     18 N22         34.5290    14.4740    25.3710 nb         1 NR0      -0.709000
     19 O01         36.9140    18.0910    20.3530 o          1 NR0      -0.824800
     20 O09         41.1360    16.6050    23.8900 os         1 NR0      -0.428600
     21 O23         35.4060    17.7470    24.0440 o          1 NR0      -0.576100
     22 H102        39.7880    16.9510    22.3590 h1         1 NR0       0.080200
     23 H101        39.5440    15.4530    23.2600 h1         1 NR0       0.080200
     24 H121        36.9870    15.6780    25.7100 h1         1 NR0       0.082700
     25 H122        37.1990    17.2140    26.5370 h1         1 NR0       0.082700
     26 H141        35.0990    18.3400    27.5350 h5         1 NR0       0.058800
     27 H211        33.5030    12.8170    24.7480 h5         1 NR0       0.042100
     28 O02         37.1410    16.2420    21.5920 o          1 NR0      -0.824800
     29 H032        38.5520    18.8080    22.3740 h1         1 NR0       0.035200
     30 H031        36.8860    19.2140    22.6670 h1         1 NR0       0.035200
     31 H051        38.7860    16.5800    25.2030 h1         1 NR0       0.056700
     32 H061        39.9650    19.1180    24.0500 h1         1 NR0       0.044700
     33 H081        41.2430    17.0890    25.9080 h1         1 NR0       0.037200
     34 H082        42.0570    18.2080    24.8010 h1         1 NR0       0.037200
     35 H071        40.1340    19.5720    26.4400 hn         1 NR0       0.338300
     36 H2          38.5990    19.4310    25.9790 hn         1 NR0       0.338300
     37 H191        30.2010    14.5790    27.2050 hn         1 NR0       0.440300
     38 H192        30.8020    16.0460    27.8800 hn         1 NR0       0.440300
     39 C02         37.1620    17.4700    21.4030 c          1 NR0       0.928600
     40 N19         30.9220    15.2780    27.2430 nv         1 NR0      -0.964500
@<TRIPOS>BOND
     1     1    10 1   
     2     1    20 1   
     3     1    22 1   
     4     1    23 1   
     5     2     3 1   
     6     2    13 1   
     7     2    21 2   
     8     3    15 1   
     9     3    24 1   
    10     3    25 1   
    11     4    15 1   
    12     4    16 2   
    13     4    26 1   
    14     5     6 ar  
    15     5    15 1   
    16     5    18 ar  
    17     6     7 ar  
    18     6    16 1   
    19     7    17 ar  
    20     7    40 1   
    21     8    17 ar  
    22     8    18 ar  
    23     8    27 1   
    24     9    13 1   
    25     9    29 1   
    26     9    30 1   
    27     9    39 1   
    28    10    11 1   
    29    10    13 1   
    30    10    31 1   
    31    11    12 1   
    32    11    14 1   
    33    11    32 1   
    34    12    20 1   
    35    12    33 1   
    36    12    34 1   
    37    14    35 1   
    38    14    36 1   
    39    19    39 1   
    40    28    39 1   
    41    37    40 1   
    42    38    40 1   
@<TRIPOS>SUBSTRUCTURE
     1 NR0         1 TEMP              0 ****  ****    0 ROOT
