@<TRIPOS>MOLECULE
NR2
   39    40     1     0     0
SMALL
No Charge or Current Charge


@<TRIPOS>ATOM
      1 S1          -6.0280     0.4520     0.3780 sy         1 NR2       1.132600
      2 N24         -6.6870    -0.8250    -0.3990 n8         1 NR2      -1.004100
      3 O23         -6.6510     0.4580     1.7020 o          1 NR2      -0.545500
      4 O22         -6.1700     1.5510    -0.5730 o          1 NR2      -0.545500
      5 C2          -4.3110    -0.0440     0.4920 ca         1 NR2      -0.308500
      6 C7          -3.8810    -0.8410     1.5690 ca         1 NR2       0.024500
      7 C6          -2.5340    -1.2300     1.6580 ca         1 NR2      -0.178000
      8 C5          -1.6000    -0.8350     0.6820 ca         1 NR2       0.045000
      9 N8          -0.2560    -1.2680     0.8460 ns         1 NR2      -0.150000
     10 C9           0.8740    -1.1100     0.0620 c          1 NR2       0.689100
     11 O13          0.9060    -0.5280    -1.0100 o          1 NR2      -0.581100
     12 N10          1.9670    -1.6840     0.6220 ns         1 NR2      -0.598300
     13 S11          3.5240    -1.7010     0.0160 sy         1 NR2       1.198300
     14 O15          4.3180    -2.3930     1.0370 o          1 NR2      -0.524500
     15 O14          3.4310    -2.2090    -1.3570 o          1 NR2      -0.524500
     16 C12          4.0220     0.0310    -0.0330 ca         1 NR2      -0.306500
     17 C20          3.8830     0.7800    -1.2200 ca         1 NR2       0.002000
     18 C19          4.2670     2.1320    -1.2470 ca         1 NR2      -0.135000
     19 C18          4.7900     2.7490    -0.0960 ca         1 NR2      -0.010300
     20 C21          5.2080     4.2100    -0.1310 c3         1 NR2      -0.059800
     21 C17          4.9270     1.9990     1.0860 ca         1 NR2      -0.135000
     22 C16          4.5450     0.6470     1.1230 ca         1 NR2       0.002000
     23 C4          -2.0400    -0.0330    -0.3930 ca         1 NR2      -0.178000
     24 C3          -3.3860     0.3610    -0.4900 ca         1 NR2       0.024500
     25 H241        -5.8740    -1.2510    -0.8360 hn         1 NR2       0.473500
     26 H242        -7.1600    -0.3570    -1.1690 hn         1 NR2       0.473500
     27 H7          -4.5830    -1.1630     2.3370 ha         1 NR2       0.139500
     28 H6          -2.2160    -1.8460     2.4960 ha         1 NR2       0.135500
     29 HN8         -0.1020    -1.7880     1.6980 hn         1 NR2       0.158000
     30 H10          1.9110    -2.1370     1.5170 hn         1 NR2       0.343500
     31 H20          3.4740     0.3250    -2.1220 ha         1 NR2       0.137500
     32 H19          4.1570     2.7000    -2.1680 ha         1 NR2       0.119500
     33 H211         6.2600     4.3080    -0.4210 hc         1 NR2       0.051033
     34 H212         4.6070     4.7810    -0.8490 hc         1 NR2       0.051033
     35 H213         5.0840     4.6850     0.8500 hc         1 NR2       0.051033
     36 H17          5.3320     2.4640     1.9820 ha         1 NR2       0.119500
     37 H16          4.6570     0.0850     2.0500 ha         1 NR2       0.137500
     38 H4          -1.3560     0.3030    -1.1660 ha         1 NR2       0.135500
     39 H3          -3.7000     0.9820    -1.3280 ha         1 NR2       0.139500
@<TRIPOS>BOND
     1     1     2 1   
     2     1     3 2   
     3     1     4 2   
     4     1     5 1   
     5     2    25 1   
     6     2    26 1   
     7     5     6 ar  
     8     5    24 ar  
     9     6     7 ar  
    10     6    27 1   
    11     7     8 ar  
    12     7    28 1   
    13     8     9 1   
    14     8    23 ar  
    15     9    10 1   
    16     9    29 1   
    17    10    11 2   
    18    10    12 1   
    19    12    13 1   
    20    12    30 1   
    21    13    14 2   
    22    13    15 2   
    23    13    16 1   
    24    16    17 ar  
    25    16    22 ar  
    26    17    18 ar  
    27    17    31 1   
    28    18    19 ar  
    29    18    32 1   
    30    19    20 1   
    31    19    21 ar  
    32    20    33 1   
    33    20    34 1   
    34    20    35 1   
    35    21    22 ar  
    36    21    36 1   
    37    22    37 1   
    38    23    24 ar  
    39    23    38 1   
    40    24    39 1   
@<TRIPOS>SUBSTRUCTURE
     1 NR2         1 TEMP              0 ****  ****    0 ROOT
