@<TRIPOS>MOLECULE
NR2
   39    40     1     0     0
SMALL
bcc


@<TRIPOS>ATOM
      1 S1          -5.7590     0.5990     0.2110 sy         1 NR2       1.274200
      2 N24         -6.5540    -0.7950    -0.1810 n8         1 NR2      -0.893700
      3 O23         -6.2580     0.9810     1.5250 o          1 NR2      -0.616300
      4 O22         -5.7950     1.5950    -0.8520 o          1 NR2      -0.616300
      5 C2          -4.1000     0.0210     0.3580 ca         1 NR2      -0.308500
      6 C7          -3.7540    -0.7780     1.4430 ca         1 NR2       0.006500
      7 C6          -2.4530    -1.2060     1.5790 ca         1 NR2      -0.196000
      8 C5          -1.4750    -0.8440     0.6430 ca         1 NR2       0.137600
      9 N8          -0.1910    -1.3170     0.8860 ns         1 NR2      -0.476100
     10 C9           0.9190    -1.1780     0.1090 c          1 NR2       0.823100
     11 O13          0.9710    -0.6040    -0.9560 o          1 NR2      -0.581100
     12 N10          2.0340    -1.7720     0.6690 ns         1 NR2      -0.665300
     13 S11          3.5500    -1.6950    -0.0400 sy         1 NR2       1.339900
     14 O15          4.3990    -2.3700     0.9230 o          1 NR2      -0.595300
     15 O14          3.4710    -2.1840    -1.3990 o          1 NR2      -0.595300
     16 C12          3.9410     0.0210    -0.0620 ca         1 NR2      -0.306500
     17 C20          3.8650     0.7380    -1.2460 ca         1 NR2      -0.016000
     18 C19          4.1900     2.0840    -1.2350 ca         1 NR2      -0.153000
     19 C18          4.5860     2.7230    -0.0620 ca         1 NR2      -0.010300
     20 C21          4.9610     4.1730    -0.0680 c3         1 NR2      -0.059800
     21 C17          4.6520     1.9750     1.1150 ca         1 NR2      -0.153000
     22 C16          4.3370     0.6280     1.1240 ca         1 NR2      -0.016000
     23 C4          -1.8340    -0.0430    -0.4420 ca         1 NR2      -0.196000
     24 C3          -3.1450     0.3860    -0.5760 ca         1 NR2       0.006500
     25 H241        -6.3750    -1.0930    -1.1350 hn         1 NR2       0.418300
     26 H242        -7.5540    -0.7090    -0.0220 hn         1 NR2       0.418300
     27 H7          -4.4890    -1.0700     2.1800 ha         1 NR2       0.157500
     28 H6          -2.1870    -1.8280     2.4250 ha         1 NR2       0.153500
     29 HN8         -0.0910    -1.8410     1.7440 hn         1 NR2       0.324500
     30 H10          2.0130    -2.1940     1.5910 hn         1 NR2       0.343500
     31 H20          3.5560     0.2650    -2.1670 ha         1 NR2       0.155500
     32 H19          4.1310     2.6480    -2.1580 ha         1 NR2       0.137500
     33 H211         6.0340     4.2880    -0.2390 hc         1 NR2       0.051033
     34 H212         4.4460     4.7150    -0.8600 hc         1 NR2       0.051033
     35 H213         4.7300     4.6510     0.8830 hc         1 NR2       0.051033
     36 H17          4.9560     2.4510     2.0380 ha         1 NR2       0.137500
     37 H16          4.3980     0.0690     2.0480 ha         1 NR2       0.155500
     38 H4          -1.1100     0.2590    -1.1800 ha         1 NR2       0.153500
     39 H3          -3.4050     1.0100    -1.4190 ha         1 NR2       0.157500
@<TRIPOS>BOND
     1     1     2 1   
     2     1     3 2   
     3     1     4 2   
     4     1     5 1   
     5     2    25 1   
     6     2    26 1   
     7     5     6 ar  
     8     5    24 ar  
     9     6     7 ar  
    10     6    27 1   
    11     7     8 ar  
    12     7    28 1   
    13     8     9 1   
    14     8    23 ar  
    15     9    10 1   
    16     9    29 1   
    17    10    11 2   
    18    10    12 1   
    19    12    13 1   
    20    12    30 1   
    21    13    14 2   
    22    13    15 2   
    23    13    16 1   
    24    16    17 ar  
    25    16    22 ar  
    26    17    18 ar  
    27    17    31 1   
    28    18    19 ar  
    29    18    32 1   
    30    19    20 1   
    31    19    21 ar  
    32    20    33 1   
    33    20    34 1   
    34    20    35 1   
    35    21    22 ar  
    36    21    36 1   
    37    22    37 1   
    38    23    24 ar  
    39    23    38 1   
    40    24    39 1   
@<TRIPOS>SUBSTRUCTURE
     1 NR2         1 TEMP              0 ****  ****    0 ROOT
