@<TRIPOS>MOLECULE
NR5
   70    73     1     0     0
SMALL
No Charge or Current Charge


@<TRIPOS>ATOM
      1 C1          21.7600   -11.2910    20.9960 c          1 NR5       0.595000
      2 N2          24.3530   -11.2440    15.6210 nu         1 NR5      -0.939900
      3 N3          23.5350    -9.9280    13.8680 nb         1 NR5      -0.323000
      4 C4          21.6920   -15.9850    19.7400 c3         1 NR5       0.189000
      5 C5          20.5430   -16.7220    19.0150 c3         1 NR5      -0.104600
      6 C6          23.0610   -16.5100    19.2450 c3         1 NR5      -0.104600
      7 C7          22.5500   -11.4870    18.8260 ca         1 NR5       0.025600
      8 C10         24.4550   -10.7970    14.3050 ca         1 NR5       0.444900
      9 C11         23.6360    -9.5110    12.5930 ca         1 NR5       0.440900
     10 C13         25.4690   -11.2810    13.4620 ca         1 NR5      -0.136000
     11 C14         21.5610    -8.0460    13.0110 c6         1 NR5       0.196300
     12 C15         21.7410    -6.5200    13.3290 c6         1 NR5       0.176000
     13 C16         20.4160    -5.9310    13.8890 c3         1 NR5      -0.097100
     14 C17         22.8500    -6.2470    14.3940 c3         1 NR5      -0.097100
     15 C19         24.4480    -5.9060    11.7220 c3         1 NR5      -0.097100
     16 C20         22.8070    -5.4060     9.8920 c3         1 NR5      -0.097100
     17 C22         23.0600    -9.5640    16.8830 ca         1 NR5      -0.111000
     18 C23         22.3260    -9.2040    18.0320 ca         1 NR5      -0.094000
     19 C24         22.0370   -10.2050    18.9670 ca         1 NR5      -0.012400
     20 Cl          26.6770   -12.4520    14.0090 cl         1 NR5      -0.191000
     21 C12         25.4910   -10.7930    12.1470 ca         1 NR5       0.191900
     22 N4          24.5780    -9.9060    11.7110 nb         1 NR5      -0.273000
     23 N5          22.6690    -8.5730    12.1410 nh         1 NR5      -0.766300
     24 C21         22.8310    -7.7690    10.8820 c6         1 NR5       0.196300
     25 C18         23.0190    -6.2410    11.1860 c6         1 NR5       0.176000
     26 O2          21.9890    -5.7610    12.1060 os         1 NR5      -0.472000
     27 C9          23.5710   -10.8790    16.7220 ca         1 NR5       0.301000
     28 C8          23.3650   -11.8320    17.7400 ca         1 NR5      -0.154000
     29 N           21.5790   -10.0820    20.3090 n          1 NR5      -0.290000
     30 C           20.7400    -8.9790    20.8060 c3         1 NR5       0.106300
     31 N1          22.3920   -12.1430    20.0790 n          1 NR5      -0.294000
     32 O           21.4030   -11.5580    22.1350 o          1 NR5      -0.559000
     33 C2          22.5890   -13.5860    20.2980 c3         1 NR5       0.120000
     34 C3          21.5480   -14.4510    19.5490 c3         1 NR5      -0.129400
     35 O1          21.5830   -16.2770    21.1320 oh         1 NR5      -0.656000
     36 H1          24.9470   -12.0560    15.7890 hn         1 NR5       0.512000
     37 H2          19.5660   -16.3900    19.3880 hc         1 NR5       0.043200
     38 H3          20.5780   -16.5270    17.9360 hc         1 NR5       0.043200
     39 H4          20.6120   -17.8070    19.1630 hc         1 NR5       0.043200
     40 H5          23.8880   -16.0980    19.8350 hc         1 NR5       0.043200
     41 H6          23.1130   -17.6030    19.3210 hc         1 NR5       0.043200
     42 H7          23.2230   -16.2380    18.1940 hc         1 NR5       0.043200
     43 H8          20.6030    -8.1850    12.4870 h1         1 NR5       0.072200
     44 H9          21.4600    -8.6000    13.9550 h1         1 NR5       0.072200
     45 H10         20.1030    -6.4460    14.8050 hc         1 NR5       0.043617
     46 H11         20.5220    -4.8650    14.1260 hc         1 NR5       0.043617
     47 H12         19.6000    -6.0290    13.1630 hc         1 NR5       0.043617
     48 H13         22.4800    -6.4440    15.4070 hc         1 NR5       0.043617
     49 H14         23.7210    -6.8970    14.2650 hc         1 NR5       0.043617
     50 H15         23.1860    -5.2040    14.3680 hc         1 NR5       0.043617
     51 H16         24.8230    -6.6670    12.4120 hc         1 NR5       0.043617
     52 H17         25.1750    -5.8660    10.9020 hc         1 NR5       0.043617
     53 H18         24.4720    -4.9330    12.2250 hc         1 NR5       0.043617
     54 H19         22.9410    -4.3340    10.0830 hc         1 NR5       0.043617
     55 H20         23.5160    -5.6950     9.1050 hc         1 NR5       0.043617
     56 H21         21.7970    -5.5460     9.4900 hc         1 NR5       0.043617
     57 H22         23.2870    -8.7980    16.1500 ha         1 NR5       0.138000
     58 H23         22.0090    -8.1750    18.1890 ha         1 NR5       0.124000
     59 H24         26.2470   -11.1150    11.4320 h4         1 NR5       0.031100
     60 H25         21.9340    -7.8980    10.2570 h1         1 NR5       0.072200
     61 H26         23.6740    -8.1120    10.2650 h1         1 NR5       0.072200
     62 H27         23.8240   -12.8150    17.6850 ha         1 NR5       0.124000
     63 H28         20.6980    -8.9990    21.9030 h1         1 NR5       0.051033
     64 H29         21.1620    -8.0180    20.4860 h1         1 NR5       0.051033
     65 H30         19.7240    -9.0800    20.4040 h1         1 NR5       0.051033
     66 H31         22.5370   -13.7960    21.3740 h1         1 NR5       0.061200
     67 H32         23.6000   -13.8440    19.9610 h1         1 NR5       0.061200
     68 H33         21.6040   -14.2210    18.4780 hc         1 NR5       0.061700
     69 H34         20.5480   -14.1430    19.8780 hc         1 NR5       0.061700
     70 H35         21.6310   -17.2520    21.2240 ho         1 NR5       0.440000
@<TRIPOS>BOND
     1     1    29 1   
     2     1    31 1   
     3     1    32 2   
     4     2     8 1   
     5     2    27 1   
     6     2    36 1   
     7     3     8 ar  
     8     3     9 ar  
     9     4     5 1   
    10     4     6 1   
    11     4    34 1   
    12     4    35 1   
    13     5    37 1   
    14     5    38 1   
    15     5    39 1   
    16     6    40 1   
    17     6    41 1   
    18     6    42 1   
    19     7    19 ar  
    20     7    28 ar  
    21     7    31 1   
    22     8    10 ar  
    23     9    22 ar  
    24     9    23 1   
    25    10    20 1   
    26    10    21 ar  
    27    11    12 1   
    28    11    23 1   
    29    11    43 1   
    30    11    44 1   
    31    12    13 1   
    32    12    14 1   
    33    12    26 1   
    34    13    45 1   
    35    13    46 1   
    36    13    47 1   
    37    14    48 1   
    38    14    49 1   
    39    14    50 1   
    40    15    25 1   
    41    15    51 1   
    42    15    52 1   
    43    15    53 1   
    44    16    25 1   
    45    16    54 1   
    46    16    55 1   
    47    16    56 1   
    48    17    18 ar  
    49    17    27 ar  
    50    17    57 1   
    51    18    19 ar  
    52    18    58 1   
    53    19    29 1   
    54    21    22 ar  
    55    21    59 1   
    56    23    24 1   
    57    24    25 1   
    58    24    60 1   
    59    24    61 1   
    60    25    26 1   
    61    27    28 ar  
    62    28    62 1   
    63    29    30 1   
    64    30    63 1   
    65    30    64 1   
    66    30    65 1   
    67    31    33 1   
    68    33    34 1   
    69    33    66 1   
    70    33    67 1   
    71    34    68 1   
    72    34    69 1   
    73    35    70 1   
@<TRIPOS>SUBSTRUCTURE
     1 NR5         1 TEMP              0 ****  ****    0 ROOT
