@<TRIPOS>MOLECULE
NR5
   70    73     1     0     0
SMALL
abcg2


@<TRIPOS>ATOM
      1 C1          21.3780   -11.2890    20.6510 c          1 NR5       0.595000
      2 N2          24.6970   -11.1580    15.7830 nu         1 NR5      -0.939900
      3 N3          23.7230    -9.8960    14.1110 nb         1 NR5      -0.323000
      4 C4          21.5840   -15.8930    19.4440 c3         1 NR5       0.189000
      5 C5          20.5180   -16.6190    18.6330 c3         1 NR5      -0.104600
      6 C6          22.9710   -16.3560    18.9980 c3         1 NR5      -0.104600
      7 C7          22.6650   -11.3890    18.8030 ca         1 NR5       0.025600
      8 C10         24.6610   -10.7400    14.4980 ca         1 NR5       0.444900
      9 C11         23.7100    -9.4770    12.8440 ca         1 NR5       0.440900
     10 C13         25.6170   -11.1970    13.5640 ca         1 NR5      -0.136000
     11 C14         21.7300    -8.1190    13.4050 c6         1 NR5       0.196300
     12 C15         21.8780    -6.6070    13.6000 c6         1 NR5       0.176000
     13 C16         20.5940    -6.0600    14.2100 c3         1 NR5      -0.097100
     14 C17         23.0500    -6.2870    14.5290 c3         1 NR5      -0.097100
     15 C19         24.3150    -6.1560    11.5490 c3         1 NR5      -0.097100
     16 C20         22.3710    -5.8140    10.0290 c3         1 NR5      -0.097100
     17 C22         23.4090    -9.4580    16.9890 ca         1 NR5      -0.111000
     18 C23         22.5790    -9.0980    18.0470 ca         1 NR5      -0.094000
     19 C24         22.2120   -10.0760    18.9480 ca         1 NR5      -0.012400
     20 CL          26.8630   -12.3110    14.0080 cl         1 NR5      -0.191000
     21 C12         25.5170   -10.7090    12.2840 ca         1 NR5       0.191900
     22 N4          24.5830    -9.8500    11.9010 nb         1 NR5      -0.273000
     23 N5          22.7290    -8.6180    12.4900 nh         1 NR5      -0.766300
     24 C21         22.6340    -7.9960    11.1920 c6         1 NR5       0.196300
     25 C18         22.8400    -6.4830    11.3150 c6         1 NR5       0.176000
     26 O2          21.9980    -5.9550    12.3380 os         1 NR5      -0.472000
     27 C9          23.8380   -10.7760    16.8270 ca         1 NR5       0.301000
     28 C8          23.4680   -11.7640    17.7450 ca         1 NR5      -0.154000
     29 N           21.4290   -10.0410    20.0810 n          1 NR5      -0.290000
     30 C           20.7750    -8.8680    20.6020 c3         1 NR5       0.106300
     31 N1          22.1550   -12.1080    19.8600 n          1 NR5      -0.294000
     32 O           20.7730   -11.6140    21.6570 o          1 NR5      -0.559000
     33 C2          22.3460   -13.5200    20.0960 c3         1 NR5       0.120000
     34 C3          21.4100   -14.3780    19.2500 c3         1 NR5      -0.129400
     35 O1          21.3550   -16.2480    20.8020 oh         1 NR5      -0.656000
     36 H1          25.3400   -11.9050    15.9940 hn         1 NR5       0.512000
     37 H2          19.5150   -16.3230    18.9450 hc         1 NR5       0.043200
     38 H3          20.6200   -16.3890    17.5720 hc         1 NR5       0.043200
     39 H4          20.6090   -17.7000    18.7510 hc         1 NR5       0.043200
     40 H5          23.7700   -15.9050    19.5930 hc         1 NR5       0.043200
     41 H6          23.0610   -17.4390    19.0950 hc         1 NR5       0.043200
     42 H7          23.1540   -16.0950    17.9550 hc         1 NR5       0.043200
     43 H8          20.7410    -8.3370    12.9840 h1         1 NR5       0.072200
     44 H9          21.8020    -8.6360    14.3590 h1         1 NR5       0.072200
     45 H10         20.3850    -6.5460    15.1630 hc         1 NR5       0.043617
     46 H11         20.6750    -4.9880    14.3960 hc         1 NR5       0.043617
     47 H12         19.7420    -6.2300    13.5500 hc         1 NR5       0.043617
     48 H13         22.8160    -6.6090    15.5450 hc         1 NR5       0.043617
     49 H14         23.9780    -6.7770    14.2380 hc         1 NR5       0.043617
     50 H15         23.2330    -5.2120    14.5580 hc         1 NR5       0.043617
     51 H16         24.7620    -6.7500    12.3450 hc         1 NR5       0.043617
     52 H17         24.8870    -6.3510    10.6410 hc         1 NR5       0.043617
     53 H18         24.4380    -5.1030    11.8050 hc         1 NR5       0.043617
     54 H19         22.5390    -4.7360    10.0640 hc         1 NR5       0.043617
     55 H20         22.9200    -6.2080     9.1730 hc         1 NR5       0.043617
     56 H21         21.3080    -5.9890     9.8600 hc         1 NR5       0.043617
     57 H22         23.7240    -8.7020    16.2880 ha         1 NR5       0.138000
     58 H23         22.2490    -8.0730    18.1550 ha         1 NR5       0.124000
     59 H24         26.2300   -11.0250    11.5300 h4         1 NR5       0.031100
     60 H25         21.6370    -8.2000    10.7840 h1         1 NR5       0.072200
     61 H26         23.3650    -8.4250    10.5120 h1         1 NR5       0.072200
     62 H27         23.8020   -12.7870    17.6200 ha         1 NR5       0.124000
     63 H28         20.2970    -9.1160    21.5450 h1         1 NR5       0.051033
     64 H29         21.5010    -8.0740    20.7750 h1         1 NR5       0.051033
     65 H30         20.0160    -8.5060    19.9090 h1         1 NR5       0.051033
     66 H31         22.1800   -13.6940    21.1590 h1         1 NR5       0.061200
     67 H32         23.3950   -13.7520    19.8960 h1         1 NR5       0.061200
     68 H33         21.5570   -14.1410    18.1920 hc         1 NR5       0.061700
     69 H34         20.3780   -14.1060    19.4910 hc         1 NR5       0.061700
     70 H35         22.1260   -16.0050    21.3250 ho         1 NR5       0.440000
@<TRIPOS>BOND
     1     1    29 1   
     2     1    31 1   
     3     1    32 2   
     4     2     8 1   
     5     2    27 1   
     6     2    36 1   
     7     3     8 ar  
     8     3     9 ar  
     9     4     5 1   
    10     4     6 1   
    11     4    34 1   
    12     4    35 1   
    13     5    37 1   
    14     5    38 1   
    15     5    39 1   
    16     6    40 1   
    17     6    41 1   
    18     6    42 1   
    19     7    19 ar  
    20     7    28 ar  
    21     7    31 1   
    22     8    10 ar  
    23     9    22 ar  
    24     9    23 1   
    25    10    20 1   
    26    10    21 ar  
    27    11    12 1   
    28    11    23 1   
    29    11    43 1   
    30    11    44 1   
    31    12    13 1   
    32    12    14 1   
    33    12    26 1   
    34    13    45 1   
    35    13    46 1   
    36    13    47 1   
    37    14    48 1   
    38    14    49 1   
    39    14    50 1   
    40    15    25 1   
    41    15    51 1   
    42    15    52 1   
    43    15    53 1   
    44    16    25 1   
    45    16    54 1   
    46    16    55 1   
    47    16    56 1   
    48    17    18 ar  
    49    17    27 ar  
    50    17    57 1   
    51    18    19 ar  
    52    18    58 1   
    53    19    29 1   
    54    21    22 ar  
    55    21    59 1   
    56    23    24 1   
    57    24    25 1   
    58    24    60 1   
    59    24    61 1   
    60    25    26 1   
    61    27    28 ar  
    62    28    62 1   
    63    29    30 1   
    64    30    63 1   
    65    30    64 1   
    66    30    65 1   
    67    31    33 1   
    68    33    34 1   
    69    33    66 1   
    70    33    67 1   
    71    34    68 1   
    72    34    69 1   
    73    35    70 1   
@<TRIPOS>SUBSTRUCTURE
     1 NR5         1 TEMP              0 ****  ****    0 ROOT
