@<TRIPOS>MOLECULE
NR6
   47    49     1     0     0
SMALL
No Charge or Current Charge


@<TRIPOS>ATOM
      1 O1         -18.7520   -26.0270    -4.8440 o          1 NR6      -0.608100
      2 C1         -19.8520   -25.7160    -4.4050 c          1 NR6       0.591100
      3 C2         -21.0940   -25.5770    -5.2950 c3         1 NR6       0.037600
      4 N1         -20.0640   -25.4590    -3.0660 ns         1 NR6      -0.491900
      5 C3         -19.0210   -25.4660    -2.0350 c3         1 NR6       0.109000
      6 C4         -18.1140   -24.2020    -2.0690 c6         1 NR6      -0.086700
      7 C5         -18.9090   -22.8950    -1.8550 c6         1 NR6      -0.092400
      8 C6         -17.9960   -21.6490    -1.9210 c6         1 NR6       0.102500
      9 N2         -16.7600   -21.7180    -1.0850 n          1 NR6      -0.401800
     10 C7         -16.0780   -20.5120    -0.7710 c          1 NR6       0.622100
     11 O2         -16.5640   -19.4170    -1.0380 o          1 NR6      -0.607100
     12 C8         -14.7070   -20.6320    -0.0720 cx         1 NR6       0.002000
     13 O3         -14.7830   -21.1690     1.2500 os         1 NR6      -0.318100
     14 C9         -15.7150   -20.4820     1.9970 ca         1 NR6       0.129100
     15 C10        -16.9340   -21.1070     2.3090 ca         1 NR6      -0.153500
     16 C11        -17.9000   -20.4260     3.0720 ca         1 NR6      -0.070000
     17 C12        -17.6380   -19.1230     3.5310 ca         1 NR6       0.088000
     18 Cl2        -18.8440   -18.2700     4.4860 cl         1 NR6      -0.212000
     19 C13        -16.4120   -18.5020     3.2330 ca         1 NR6      -0.070000
     20 C14        -15.4470   -19.1830     2.4690 ca         1 NR6      -0.153500
     21 C15        -13.6160   -19.6190    -0.3590 cx         1 NR6      -0.105400
     22 C16        -13.5020   -21.0230    -0.9010 cx         1 NR6      -0.105400
     23 C17        -16.0730   -23.0490    -1.0350 c6         1 NR6       0.102500
     24 C18        -17.0170   -24.2720    -0.9870 c6         1 NR6      -0.092400
     25 H1         -20.8430   -25.9120    -6.3080 h1         1 NR6       0.096200
     26 H2         -21.8930   -26.2090    -4.8900 h1         1 NR6       0.096200
     27 Cl1        -21.7180   -23.8600    -5.3970 cl         1 NR6      -0.279000
     28 H4         -21.0060   -25.1960    -2.7980 hn         1 NR6       0.330500
     29 H5         -19.5030   -25.5380    -1.0510 h1         1 NR6       0.061700
     30 H6         -18.3980   -26.3610    -2.1680 h1         1 NR6       0.061700
     31 H7         -17.6360   -24.1760    -3.0580 hc         1 NR6       0.063700
     32 H8         -19.4130   -22.9220    -0.8790 hc         1 NR6       0.052950
     33 H9         -19.7010   -22.7950    -2.6100 hc         1 NR6       0.052950
     34 H10        -17.6920   -21.4910    -2.9650 h1         1 NR6       0.060200
     35 H11        -18.5930   -20.7740    -1.6270 h1         1 NR6       0.060200
     36 H12        -17.1330   -22.1150     1.9530 ha         1 NR6       0.137000
     37 H13        -18.8470   -20.9050     3.3090 ha         1 NR6       0.132000
     38 H14        -16.2110   -17.4970     3.5960 ha         1 NR6       0.132000
     39 H15        -14.4970   -18.7050     2.2480 ha         1 NR6       0.137000
     40 H16        -12.9490   -19.3400     0.4520 hc         1 NR6       0.091950
     41 H17        -13.8330   -18.8190    -1.0630 hc         1 NR6       0.091950
     42 H18        -12.7700   -21.6860    -0.4470 hc         1 NR6       0.091950
     43 H19        -13.6410   -21.1640    -1.9710 hc         1 NR6       0.091950
     44 H20        -15.4340   -23.1350    -1.9250 h1         1 NR6       0.060200
     45 H21        -15.4140   -23.1130    -0.1600 h1         1 NR6       0.060200
     46 H22        -17.4800   -24.3290     0.0080 hc         1 NR6       0.052950
     47 H23        -16.4260   -25.1910    -1.1050 hc         1 NR6       0.052950
@<TRIPOS>BOND
     1     1     2 2   
     2     2     3 1   
     3     2     4 1   
     4     3    25 1   
     5     3    26 1   
     6     3    27 1   
     7     4     5 1   
     8     4    28 1   
     9     5     6 1   
    10     5    29 1   
    11     5    30 1   
    12     6     7 1   
    13     6    24 1   
    14     6    31 1   
    15     7     8 1   
    16     7    32 1   
    17     7    33 1   
    18     8     9 1   
    19     8    34 1   
    20     8    35 1   
    21     9    10 1   
    22     9    23 1   
    23    10    11 2   
    24    10    12 1   
    25    12    13 1   
    26    12    21 1   
    27    12    22 1   
    28    13    14 1   
    29    14    15 ar  
    30    14    20 ar  
    31    15    16 ar  
    32    15    36 1   
    33    16    17 ar  
    34    16    37 1   
    35    17    18 1   
    36    17    19 ar  
    37    19    20 ar  
    38    19    38 1   
    39    20    39 1   
    40    21    22 1   
    41    21    40 1   
    42    21    41 1   
    43    22    42 1   
    44    22    43 1   
    45    23    24 1   
    46    23    44 1   
    47    23    45 1   
    48    24    46 1   
    49    24    47 1   
@<TRIPOS>SUBSTRUCTURE
     1 NR6         1 TEMP              0 ****  ****    0 ROOT
