@<TRIPOS>MOLECULE
NR6
   47    49     1     0     0
SMALL
abcg2


@<TRIPOS>ATOM
      1 O1         -19.7900   -26.3990    -3.2590 o          1 NR6      -0.608100
      2 C1         -20.5150   -25.4120    -3.1240 c          1 NR6       0.591100
      3 C2         -21.7530   -25.3510    -4.0050 c3         1 NR6       0.037600
      4 N1         -20.2910   -24.4170    -2.2640 ns         1 NR6      -0.491900
      5 C3         -19.1220   -24.3620    -1.3990 c3         1 NR6       0.109000
      6 C4         -17.9250   -23.6510    -2.0340 c6         1 NR6      -0.086700
      7 C5         -18.2360   -22.1900    -2.3730 c6         1 NR6      -0.092400
      8 C6         -17.0050   -21.4530    -2.8970 c6         1 NR6       0.102500
      9 N2         -15.9190   -21.5620    -1.9240 n          1 NR6      -0.401800
     10 C7         -15.3670   -20.4570    -1.3870 c          1 NR6       0.622100
     11 O2         -15.5750   -19.3220    -1.8260 o          1 NR6      -0.607100
     12 C8         -14.4730   -20.6420    -0.1730 cx         1 NR6       0.002000
     13 O3         -14.9480   -21.5290     0.8180 os         1 NR6      -0.318100
     14 C9         -16.0880   -21.1950     1.4980 ca         1 NR6       0.129100
     15 C10        -16.5590   -22.1550     2.3940 ca         1 NR6      -0.153500
     16 C11        -17.7220   -21.9300     3.1110 ca         1 NR6      -0.070000
     17 C12        -18.4140   -20.7380     2.9290 ca         1 NR6       0.088000
     18 CL2        -19.8950   -20.4540     3.8240 cl         1 NR6      -0.212000
     19 C13        -17.9500   -19.7740     2.0500 ca         1 NR6      -0.070000
     20 C14        -16.7800   -19.9990     1.3300 ca         1 NR6      -0.153500
     21 C15        -13.6340   -19.4940     0.2940 cx         1 NR6      -0.105400
     22 C16        -12.9860   -20.6810    -0.3650 cx         1 NR6      -0.105400
     23 C17        -15.5330   -22.9440    -1.6400 c6         1 NR6       0.102500
     24 C18        -16.7170   -23.7360    -1.0960 c6         1 NR6      -0.092400
     25 H1         -21.4410   -25.3680    -5.0460 h1         1 NR6       0.096200
     26 H2         -22.3670   -26.2240    -3.8000 h1         1 NR6       0.096200
     27 CL1        -22.8140   -23.9020    -3.7970 cl         1 NR6      -0.279000
     28 H4         -20.9400   -23.6460    -2.2500 hn         1 NR6       0.330500
     29 H5         -19.4130   -23.8440    -0.4840 h1         1 NR6       0.061700
     30 H6         -18.8490   -25.3840    -1.1380 h1         1 NR6       0.061700
     31 H7         -17.6750   -24.1740    -2.9640 hc         1 NR6       0.063700
     32 H8         -18.5940   -21.6770    -1.4740 hc         1 NR6       0.052950
     33 H9         -19.0290   -22.1330    -3.1220 hc         1 NR6       0.052950
     34 H10        -16.6730   -21.8890    -3.8450 h1         1 NR6       0.060200
     35 H11        -17.2140   -20.4010    -3.0610 h1         1 NR6       0.060200
     36 H12        -16.0110   -23.0810     2.5120 ha         1 NR6       0.137000
     37 H13        -18.0900   -22.6770     3.8010 ha         1 NR6       0.132000
     38 H14        -18.4930   -18.8480     1.9190 ha         1 NR6       0.132000
     39 H15        -16.4290   -19.2420     0.6450 ha         1 NR6       0.137000
     40 H16        -13.5270   -19.3970     1.3660 hc         1 NR6       0.091950
     41 H17        -13.7070   -18.5690    -0.2590 hc         1 NR6       0.091950
     42 H18        -12.4450   -21.3810     0.2580 hc         1 NR6       0.091950
     43 H19        -12.6160   -20.5740    -1.3760 hc         1 NR6       0.091950
     44 H20        -15.2000   -23.3860    -2.5860 h1         1 NR6       0.060200
     45 H21        -14.6950   -22.9660    -0.9540 h1         1 NR6       0.060200
     46 H22        -16.9890   -23.3410    -0.1140 hc         1 NR6       0.052950
     47 H23        -16.4180   -24.7780    -0.9590 hc         1 NR6       0.052950
@<TRIPOS>BOND
     1     1     2 2   
     2     2     3 1   
     3     2     4 1   
     4     3    25 1   
     5     3    26 1   
     6     3    27 1   
     7     4     5 1   
     8     4    28 1   
     9     5     6 1   
    10     5    29 1   
    11     5    30 1   
    12     6     7 1   
    13     6    24 1   
    14     6    31 1   
    15     7     8 1   
    16     7    32 1   
    17     7    33 1   
    18     8     9 1   
    19     8    34 1   
    20     8    35 1   
    21     9    10 1   
    22     9    23 1   
    23    10    11 2   
    24    10    12 1   
    25    12    13 1   
    26    12    21 1   
    27    12    22 1   
    28    13    14 1   
    29    14    15 ar  
    30    14    20 ar  
    31    15    16 ar  
    32    15    36 1   
    33    16    17 ar  
    34    16    37 1   
    35    17    18 1   
    36    17    19 ar  
    37    19    20 ar  
    38    19    38 1   
    39    20    39 1   
    40    21    22 1   
    41    21    40 1   
    42    21    41 1   
    43    22    42 1   
    44    22    43 1   
    45    23    24 1   
    46    23    44 1   
    47    23    45 1   
    48    24    46 1   
    49    24    47 1   
@<TRIPOS>SUBSTRUCTURE
     1 NR6         1 TEMP              0 ****  ****    0 ROOT
