@<TRIPOS>MOLECULE
NR7
   69    73     1     0     0
SMALL
bcc


@<TRIPOS>ATOM
      1 C13         -3.7910     1.7340    -1.9330 ca         1 NR7      -0.199000
      2 C18         -6.4180     2.7740     0.4240 c          1 NR7       0.760100
      3 C16         -3.5350    -0.4870    -0.3050 ca         1 NR7       0.113600
      4 C15         -4.5160     0.4600    -0.0290 ca         1 NR7      -0.154000
      5 C21         -8.0670     4.2240     1.2640 c3         1 NR7       0.148700
      6 C23         -1.0510    -3.9710     2.0440 c2         1 NR7      -0.174200
      7 C24         -2.0380    -3.5090     3.0670 c3         1 NR7      -0.031200
      8 C11         -2.6510    -0.3290    -1.3740 ca         1 NR7      -0.156500
      9 C12         -2.8200     0.7890    -2.1910 ca         1 NR7      -0.079000
     10 C34          6.2940     1.1690     1.5710 ca         1 NR7      -0.122000
     11 C33          5.3110     1.0880     0.5910 ca         1 NR7      -0.068300
     12 C2           1.3950    -3.0160    -0.4970 c3         1 NR7       0.089400
     13 C3           1.0670    -3.8770     0.7390 c3         1 NR7      -0.039200
     14 C4           0.0910    -3.3600     1.7510 c2         1 NR7      -0.144200
     15 N5           2.3960    -1.9770    -0.2500 n          1 NR7      -0.468800
     16 C6           0.1940    -2.4230    -1.1630 cc         1 NR7       0.378800
     17 N7          -0.0580    -2.5820    -2.4830 na         1 NR7      -0.285900
     18 C8          -1.1670    -1.8540    -2.7910 cc         1 NR7      -0.242600
     19 C9          -1.5510    -1.2670    -1.6140 cd         1 NR7       0.351800
     20 N10         -0.6940    -1.6360    -0.6130 nd         1 NR7      -0.653000
     21 C14         -4.6400     1.5910    -0.8320 ca         1 NR7       0.103600
     22 N17         -5.5880     2.5940    -0.6370 ns         1 NR7      -0.465100
     23 O19         -6.5100     2.0530     1.3910 o          1 NR7      -0.561000
     24 O20         -7.1340     3.8820     0.2420 os         1 NR7      -0.437900
     25 N22         -3.4990    -1.6630     0.4700 ns         1 NR7      -0.480100
     26 C25         -3.3640    -3.0730     2.4330 c3         1 NR7      -0.152400
     27 C26         -3.2850    -1.6990     1.8050 c          1 NR7       0.679100
     28 O27         -3.0850    -0.6970     2.4710 o          1 NR7      -0.582100
     29 C28          4.4790    -0.8030    -0.8520 c6         1 NR7      -0.151400
     30 C29          3.4430    -1.8800    -1.0970 c          1 NR7       0.711500
     31 C30          4.4130    -0.1190     0.5080 c6         1 NR7      -0.016400
     32 C31          2.9520     0.2060     0.7880 c6         1 NR7      -0.089400
     33 C32          2.1590    -1.0790     0.8750 c6         1 NR7       0.098000
     34 C35          7.1130     2.2860     1.6680 ca         1 NR7      -0.118000
     35 C36          6.9670     3.3460     0.7860 ca         1 NR7      -0.119000
     36 C37          5.9860     3.2600    -0.1890 ca         1 NR7       0.030400
     37 C38          5.1620     2.1520    -0.2980 ca         1 NR7      -0.117000
     38 O39          3.5750    -2.6180    -2.0690 o          1 NR7      -0.667500
     39 H47         -3.8830     2.5990    -2.5790 ha         1 NR7       0.130000
     40 H48         -5.1930     0.2910     0.7910 ha         1 NR7       0.178000
     41 H50         -8.5320     5.1510     0.9390 h1         1 NR7       0.050700
     42 H51         -8.8340     3.4590     1.3790 h1         1 NR7       0.050700
     43 H52         -7.5730     4.3880     2.2210 h1         1 NR7       0.050700
     44 H54         -1.3220    -4.8730     1.4980 ha         1 NR7       0.109000
     45 H56         -2.2500    -4.3250     3.7630 hc         1 NR7       0.056700
     46 H55         -1.6250    -2.6910     3.6630 hc         1 NR7       0.056700
     47 H46         -2.1500     0.9350    -3.0290 ha         1 NR7       0.132000
     48 H66          6.4220     0.3510     2.2690 ha         1 NR7       0.134000
     49 H40          1.8570    -3.7000    -1.2080 h1         1 NR7       0.082700
     50 H41          0.6860    -4.8270     0.3540 hc         1 NR7       0.052700
     51 H42          2.0200    -4.1110     1.2240 hc         1 NR7       0.052700
     52 H43          0.3500    -2.4580     2.2950 ha         1 NR7       0.130000
     53 H44          0.4760    -3.1420    -3.1280 hn         1 NR7       0.311700
     54 H45         -1.5870    -1.8270    -3.7830 h4         1 NR7       0.180000
     55 H49         -5.6200     3.3060    -1.3510 hn         1 NR7       0.331500
     56 H53         -3.4510    -2.5370    -0.0310 hn         1 NR7       0.321500
     57 H58         -3.6980    -3.8230     1.7130 hc         1 NR7       0.059200
     58 H57         -4.1340    -3.0160     3.2070 hc         1 NR7       0.059200
     59 H59          5.4590    -1.2550    -1.0160 hc         1 NR7       0.077200
     60 H60          4.3470    -0.0680    -1.6520 hc         1 NR7       0.077200
     61 H61          4.7490    -0.8300     1.2700 hc         1 NR7       0.058700
     62 H62          2.8410     0.7410     1.7330 hc         1 NR7       0.061700
     63 H63          2.5460     0.8500     0.0030 hc         1 NR7       0.061700
     64 H65          1.0930    -0.8500     0.9020 h1         1 NR7       0.063700
     65 H64          2.4090    -1.5920     1.8090 h1         1 NR7       0.063700
     66 H67          7.8740     2.3340     2.4350 ha         1 NR7       0.137000
     67 H68          7.6020     4.2190     0.8570 ha         1 NR7       0.149000
     68 H69          4.4070     2.1220    -1.0730 ha         1 NR7       0.147000
     69 CL1          5.7800     4.5750    -1.3040 cl         1 NR7      -0.113400
@<TRIPOS>BOND
     1     1     9 ar  
     2     1    21 ar  
     3     1    39 1   
     4     2    22 1   
     5     2    23 2   
     6     2    24 1   
     7     3     4 ar  
     8     3     8 ar  
     9     3    25 1   
    10     4    21 ar  
    11     4    40 1   
    12     5    24 1   
    13     5    41 1   
    14     5    42 1   
    15     5    43 1   
    16     6     7 1   
    17     6    14 2   
    18     6    44 1   
    19     7    26 1   
    20     7    45 1   
    21     7    46 1   
    22     8     9 ar  
    23     8    19 1   
    24     9    47 1   
    25    10    11 ar  
    26    10    34 ar  
    27    10    48 1   
    28    11    31 1   
    29    11    37 ar  
    30    12    13 1   
    31    12    15 1   
    32    12    16 1   
    33    12    49 1   
    34    13    14 1   
    35    13    50 1   
    36    13    51 1   
    37    14    52 1   
    38    15    30 1   
    39    15    33 1   
    40    16    17 1   
    41    16    20 2   
    42    17    18 1   
    43    17    53 1   
    44    18    19 2   
    45    18    54 1   
    46    19    20 1   
    47    21    22 1   
    48    22    55 1   
    49    25    27 1   
    50    25    56 1   
    51    26    27 1   
    52    26    57 1   
    53    26    58 1   
    54    27    28 2   
    55    29    30 1   
    56    29    31 1   
    57    29    59 1   
    58    29    60 1   
    59    30    38 2   
    60    31    32 1   
    61    31    61 1   
    62    32    33 1   
    63    32    62 1   
    64    32    63 1   
    65    33    64 1   
    66    33    65 1   
    67    34    35 ar  
    68    34    66 1   
    69    35    36 ar  
    70    35    67 1   
    71    36    37 ar  
    72    36    69 1   
    73    37    68 1   
@<TRIPOS>SUBSTRUCTURE
     1 NR7         1 TEMP              0 ****  ****    0 ROOT
