@<TRIPOS>MOLECULE
NR7
   69    73     1     0     0
SMALL
No Charge or Current Charge


@<TRIPOS>ATOM
      1 C13         -4.2830     1.5150    -2.1350 ca         1 NR7      -0.181000
      2 C18         -7.0410     2.5380     0.2060 c          1 NR7       0.644100
      3 C16         -3.5960    -0.3980    -0.1930 ca         1 NR7       0.021000
      4 C15         -4.6810     0.4810     0.0130 ca         1 NR7      -0.136000
      5 C21         -8.9290     3.9170     0.7750 c3         1 NR7       0.171900
      6 C23         -1.1390    -3.6960     2.1310 c2         1 NR7      -0.224200
      7 C24         -2.0030    -3.1980     3.2720 c3         1 NR7      -0.031200
      8 C11         -2.8350    -0.3200    -1.3920 ca         1 NR7      -0.156500
      9 C12         -3.2020     0.6480    -2.3540 ca         1 NR7      -0.061000
     10 C34          7.0120     0.6070     1.1670 ca         1 NR7      -0.104000
     11 C33          5.7610     0.8540     0.5660 ca         1 NR7      -0.068300
     12 C2           1.3520    -2.9400    -0.4730 c3         1 NR7       0.089400
     13 C3           0.9750    -3.8580     0.7370 c3         1 NR7      -0.039200
     14 C4           0.1050    -3.2790     1.8460 c2         1 NR7      -0.194200
     15 N5           2.4650    -1.9610    -0.2290 n          1 NR7      -0.401800
     16 C6           0.1860    -2.2640    -1.1880 cc         1 NR7       0.378800
     17 N7           0.2010    -1.9720    -2.5290 na         1 NR7      -0.285500
     18 C8          -0.9260    -1.2310    -2.8220 cc         1 NR7      -0.210000
     19 C9          -1.6140    -1.1330    -1.6360 cd         1 NR7       0.286500
     20 N10         -0.8990    -1.7520    -0.6310 nd         1 NR7      -0.653000
     21 C14         -5.0300     1.4460    -0.9520 ca         1 NR7       0.011000
     22 N17         -6.1120     2.3560    -0.8020 ns         1 NR7      -0.139000
     23 O19         -7.1230     1.8970     1.2450 o          1 NR7      -0.512000
     24 O20         -7.8780     3.5630    -0.1430 os         1 NR7      -0.461100
     25 N22         -3.3600    -1.4240     0.7560 ns         1 NR7      -0.154000
     26 C25         -3.4180    -2.7900     2.8020 c3         1 NR7      -0.152400
     27 C26         -3.4480    -1.4070     2.1360 c          1 NR7       0.612100
     28 O27         -3.5760    -0.3780     2.7910 o          1 NR7      -0.582100
     29 C28          4.4880    -0.6420    -1.0640 c6         1 NR7      -0.151400
     30 C29          3.3520    -1.6510    -1.2940 c          1 NR7       0.569000
     31 C30          4.7440    -0.2870     0.4150 c6         1 NR7      -0.016400
     32 C31          3.3870     0.0360     1.0690 c6         1 NR7      -0.089400
     33 C32          2.4610    -1.1980     1.0490 c6         1 NR7       0.098000
     34 C35          7.9530     1.6420     1.3100 ca         1 NR7      -0.100000
     35 C36          7.6500     2.9350     0.8520 ca         1 NR7      -0.101000
     36 C37          6.4070     3.1890     0.2500 ca         1 NR7       0.122000
     37 C38          5.4660     2.1560     0.1060 ca         1 NR7      -0.099000
     38 O39          3.2550    -2.2020    -2.3840 o          1 NR7      -0.592000
     39 H47         -4.5340     2.2520    -2.8950 ha         1 NR7       0.112000
     40 H48         -5.2620     0.3850     0.9240 ha         1 NR7       0.160000
     41 H50         -9.5220     4.7490     0.3750 h1         1 NR7       0.050700
     42 H51         -9.6050     3.0690     0.9440 h1         1 NR7       0.050700
     43 H52         -8.5160     4.2300     1.7430 h1         1 NR7       0.050700
     44 H54         -1.6000    -4.4820     1.5290 ha         1 NR7       0.159000
     45 H56         -2.1050    -4.0020     4.0120 hc         1 NR7       0.056700
     46 H55         -1.5290    -2.3580     3.7960 hc         1 NR7       0.056700
     47 H46         -2.6350     0.7570    -3.2740 ha         1 NR7       0.114000
     48 H66          7.2600    -0.3900     1.5260 ha         1 NR7       0.116000
     49 H40          1.7420    -3.6610    -1.2020 h1         1 NR7       0.082700
     50 H41          0.4680    -4.7370     0.3200 hc         1 NR7       0.052700
     51 H42          1.9040    -4.2470     1.1730 hc         1 NR7       0.052700
     52 H43          0.5770    -2.5210     2.4710 ha         1 NR7       0.180000
     53 H44          0.9590    -2.2100    -3.1600 hn         1 NR7       0.362000
     54 H45         -1.1360    -0.8360    -3.8070 h4         1 NR7       0.162000
     55 H49         -6.2260     2.9930    -1.5780 hn         1 NR7       0.165000
     56 H53         -3.1230    -2.3210     0.3540 hn         1 NR7       0.155000
     57 H58         -3.7670    -3.5520     2.0940 hc         1 NR7       0.059200
     58 H57         -4.0750    -2.7650     3.6800 hc         1 NR7       0.059200
     59 H59          5.3920    -1.0000    -1.5730 hc         1 NR7       0.077200
     60 H60          4.1890     0.2620    -1.6090 hc         1 NR7       0.077200
     61 H61          5.1490    -1.1820     0.9110 hc         1 NR7       0.058700
     62 H62          3.5310     0.3710     2.1050 hc         1 NR7       0.061700
     63 H63          2.8960     0.8640     0.5390 hc         1 NR7       0.061700
     64 H65          1.4380    -0.8630     1.2710 h1         1 NR7       0.063700
     65 H64          2.7740    -1.8770     1.8540 h1         1 NR7       0.063700
     66 H67          8.9150     1.4420     1.7760 ha         1 NR7       0.119000
     67 H68          8.3750     3.7380     0.9610 ha         1 NR7       0.131000
     68 H69          4.5120     2.3730    -0.3640 ha         1 NR7       0.129000
     69 Cl1          6.0270     4.8060    -0.3270 cl         1 NR7      -0.205000
@<TRIPOS>BOND
     1     1     9 ar  
     2     1    21 ar  
     3     1    39 1   
     4     2    22 1   
     5     2    23 2   
     6     2    24 1   
     7     3     4 ar  
     8     3     8 ar  
     9     3    25 1   
    10     4    21 ar  
    11     4    40 1   
    12     5    24 1   
    13     5    41 1   
    14     5    42 1   
    15     5    43 1   
    16     6     7 1   
    17     6    14 2   
    18     6    44 1   
    19     7    26 1   
    20     7    45 1   
    21     7    46 1   
    22     8     9 ar  
    23     8    19 1   
    24     9    47 1   
    25    10    11 ar  
    26    10    34 ar  
    27    10    48 1   
    28    11    31 1   
    29    11    37 ar  
    30    12    13 1   
    31    12    15 1   
    32    12    16 1   
    33    12    49 1   
    34    13    14 1   
    35    13    50 1   
    36    13    51 1   
    37    14    52 1   
    38    15    30 1   
    39    15    33 1   
    40    16    17 1   
    41    16    20 2   
    42    17    18 1   
    43    17    53 1   
    44    18    19 2   
    45    18    54 1   
    46    19    20 1   
    47    21    22 1   
    48    22    55 1   
    49    25    27 1   
    50    25    56 1   
    51    26    27 1   
    52    26    57 1   
    53    26    58 1   
    54    27    28 2   
    55    29    30 1   
    56    29    31 1   
    57    29    59 1   
    58    29    60 1   
    59    30    38 2   
    60    31    32 1   
    61    31    61 1   
    62    32    33 1   
    63    32    62 1   
    64    32    63 1   
    65    33    64 1   
    66    33    65 1   
    67    34    35 ar  
    68    34    66 1   
    69    35    36 ar  
    70    35    67 1   
    71    36    37 ar  
    72    36    69 1   
    73    37    68 1   
@<TRIPOS>SUBSTRUCTURE
     1 NR7         1 TEMP              0 ****  ****    0 ROOT
