@<TRIPOS>MOLECULE
NR8
   44    46     1     0     0
SMALL
No Charge or Current Charge


@<TRIPOS>ATOM
      1 C1          25.6350    -8.2350    11.7580 ca         1 NR8       0.404900
      2 C2          25.3590    -8.8750    12.9670 ca         1 NR8      -0.249000
      3 C3          26.3070    -9.7400    13.5160 ca         1 NR8       0.424000
      4 C4          27.5030    -9.9540    12.8170 ca         1 NR8      -0.176000
      5 C5          28.5170   -10.8350    13.3110 cg         1 NR8       0.336000
      6 C6          25.2350   -10.0890    15.8260 ca         1 NR8       0.255000
      7 C7          24.7350   -11.1390    16.6230 ca         1 NR8      -0.110000
      8 C8          23.9890   -10.8180    17.7650 ca         1 NR8       0.011600
      9 C9          22.3370   -10.8590    19.3910 c          1 NR8       0.591000
     10 C10         23.6600    -9.5020    18.0630 ca         1 NR8       0.004600
     11 C11         24.0720    -8.4450    17.2420 ca         1 NR8      -0.102000
     12 C12         24.9120    -8.7460    16.1480 ca         1 NR8      -0.112000
     13 C15         22.3530   -13.9740    17.9490 c3         1 NR8       0.154300
     14 C16         22.5330   -15.4960    18.1850 c3         1 NR8      -0.069400
     15 C17         23.9090   -16.0760    17.7770 c3         1 NR8      -0.087100
     16 O           21.5690   -11.2470    20.2610 o          1 NR8      -0.555000
     17 N3          23.1430   -11.6480    18.5570 n          1 NR8      -0.298000
     18 O1          22.4590   -13.6850    16.5470 oh         1 NR8      -0.659000
     19 N4          22.6310    -9.5340    19.0430 n          1 NR8      -0.289000
     20 N2          26.0320   -10.4000    14.7200 nu         1 NR8      -0.977000
     21 N           26.7870    -8.4180    11.0830 nb         1 NR8      -0.698000
     22 C           27.6960    -9.2650    11.6100 ca         1 NR8       0.520000
     23 Cl          29.1700    -9.4490    10.6560 cl         1 NR8      -0.147000
     24 N1          29.3330   -11.5620    13.7190 n1         1 NR8      -0.456000
     25 H1          24.9100    -7.5570    11.3090 h4         1 NR8       0.026100
     26 H2          24.4040    -8.7090    13.4510 ha         1 NR8       0.139000
     27 H3          24.9130   -12.1750    16.3500 ha         1 NR8       0.144000
     28 H4          23.7560    -7.4230    17.4380 ha         1 NR8       0.131000
     29 H5          25.2880    -7.9340    15.5330 ha         1 NR8       0.131000
     30 H6          21.2660    -8.6110    20.3760 h1         1 NR8       0.054367
     31 H7          22.9610    -8.0580    20.5160 h1         1 NR8       0.054367
     32 H8          21.9560    -7.5340    19.1320 h1         1 NR8       0.054367
     33 H9          23.2310   -13.3260    19.8270 h1         1 NR8       0.072700
     34 H10         24.3730   -13.3510    18.4800 h1         1 NR8       0.072700
     35 H11         21.3410   -13.7140    18.2910 h1         1 NR8       0.044700
     36 H12         21.7500   -16.0310    17.6320 hc         1 NR8       0.050200
     37 H13         22.3610   -15.7120    19.2460 hc         1 NR8       0.050200
     38 H14         23.9220   -17.1610    17.9340 hc         1 NR8       0.036367
     39 H15         24.1190   -15.8860    16.7180 hc         1 NR8       0.036367
     40 H16         24.7160   -15.6410    18.3770 hc         1 NR8       0.036367
     41 H17         22.3810   -12.7100    16.4580 ho         1 NR8       0.447000
     42 H18         26.5230   -11.2920    14.8100 hn         1 NR8       0.515000
     43 C13         22.1750    -8.3650    19.8140 c3         1 NR8       0.102300
     44 C14         23.3430   -13.0970    18.7590 c3         1 NR8       0.083000
@<TRIPOS>BOND
     1     1     2 ar  
     2     1    21 ar  
     3     1    25 1   
     4     2     3 ar  
     5     2    26 1   
     6     3     4 ar  
     7     3    20 1   
     8     4     5 1   
     9     4    22 ar  
    10     5    24 3   
    11     6     7 ar  
    12     6    12 ar  
    13     6    20 1   
    14     7     8 ar  
    15     7    27 1   
    16     8    10 ar  
    17     8    17 1   
    18     9    16 2   
    19     9    17 1   
    20     9    19 1   
    21    10    11 ar  
    22    10    19 1   
    23    11    12 ar  
    24    11    28 1   
    25    12    29 1   
    26    13    14 1   
    27    13    18 1   
    28    13    35 1   
    29    13    44 1   
    30    14    15 1   
    31    14    36 1   
    32    14    37 1   
    33    15    38 1   
    34    15    39 1   
    35    15    40 1   
    36    17    44 1   
    37    18    41 1   
    38    19    43 1   
    39    20    42 1   
    40    21    22 ar  
    41    22    23 1   
    42    30    43 1   
    43    31    43 1   
    44    32    43 1   
    45    33    44 1   
    46    34    44 1   
@<TRIPOS>SUBSTRUCTURE
     1 NR8         1 TEMP              0 ****  ****    0 ROOT
