@<TRIPOS>MOLECULE
NR8
   44    46     1     0     0
SMALL
abcg2


@<TRIPOS>ATOM
      1 C1          25.1640    -9.0880    11.9650 ca         1 NR8       0.404900
      2 C2          25.2110    -9.3590    13.3080 ca         1 NR8      -0.249000
      3 C3          26.3950    -9.8790    13.8630 ca         1 NR8       0.424000
      4 C4          27.4680   -10.0840    12.9610 ca         1 NR8      -0.176000
      5 C5          28.7030   -10.5950    13.4280 cg         1 NR8       0.336000
      6 C6          25.5320    -9.9440    16.1490 ca         1 NR8       0.255000
      7 C7          24.9560   -11.0390    16.7940 ca         1 NR8      -0.110000
      8 C8          24.0200   -10.7750    17.7720 ca         1 NR8       0.011600
      9 C9          22.4680   -10.8570    19.4060 c          1 NR8       0.591000
     10 C10         23.6390    -9.4640    18.0810 ca         1 NR8       0.004600
     11 C11         24.1990    -8.3810    17.4320 ca         1 NR8      -0.102000
     12 C12         25.1660    -8.6390    16.4660 ca         1 NR8      -0.112000
     13 C15         22.3780   -13.7340    17.7320 c3         1 NR8       0.154300
     14 C16         22.5030   -15.2510    17.8010 c3         1 NR8      -0.069400
     15 C17         23.8200   -15.8170    17.2820 c3         1 NR8      -0.087100
     16 O           21.7000   -11.2840    20.2480 o          1 NR8      -0.555000
     17 N3          23.2960   -11.6070    18.5980 n          1 NR8      -0.298000
     18 O1          22.5570   -13.3240    16.3930 oh         1 NR8      -0.659000
     19 N4          22.6910    -9.5420    19.0730 n          1 NR8      -0.289000
     20 N2          26.5220   -10.1800    15.1650 nu         1 NR8      -0.977000
     21 N           26.1800    -9.2790    11.1110 nb         1 NR8      -0.698000
     22 C           27.2760    -9.7620    11.6160 ca         1 NR8       0.520000
     23 CL          28.5930   -10.0150    10.5260 cl         1 NR8      -0.147000
     24 N1          29.7010   -10.9940    13.8470 n1         1 NR8      -0.456000
     25 H1          24.2520    -8.6940    11.5330 h4         1 NR8       0.026100
     26 H2          24.3400    -9.1820    13.9210 ha         1 NR8       0.139000
     27 H3          25.2340   -12.0480    16.5210 ha         1 NR8       0.144000
     28 H4          23.9160    -7.3650    17.6720 ha         1 NR8       0.131000
     29 H5          25.6440    -7.8120    15.9560 ha         1 NR8       0.131000
     30 H6          21.3150    -8.7800    20.4160 h1         1 NR8       0.054367
     31 H7          22.7600    -7.7840    20.2050 h1         1 NR8       0.054367
     32 H8          21.5110    -7.8220    18.9450 h1         1 NR8       0.054367
     33 H9          23.2080   -13.3610    19.6890 h1         1 NR8       0.072700
     34 H10         24.4040   -13.3330    18.4050 h1         1 NR8       0.072700
     35 H11         21.3720   -13.4650    18.0810 h1         1 NR8       0.044700
     36 H12         21.6740   -15.6860    17.2380 hc         1 NR8       0.050200
     37 H13         22.3530   -15.5550    18.8410 hc         1 NR8       0.050200
     38 H14         23.8110   -16.9050    17.3400 hc         1 NR8       0.036367
     39 H15         23.9920   -15.5470    16.2400 hc         1 NR8       0.036367
     40 H16         24.6790   -15.4740    17.8610 hc         1 NR8       0.036367
     41 H17         22.1920   -12.4410    16.2860 ho         1 NR8       0.447000
     42 H18         27.3540   -10.6650    15.4690 hn         1 NR8       0.515000
     43 C13         22.0370    -8.4170    19.6910 c3         1 NR8       0.102300
     44 C14         23.3820   -13.0480    18.6580 c3         1 NR8       0.083000
@<TRIPOS>BOND
     1     1     2 ar  
     2     1    21 ar  
     3     1    25 1   
     4     2     3 ar  
     5     2    26 1   
     6     3     4 ar  
     7     3    20 1   
     8     4     5 1   
     9     4    22 ar  
    10     5    24 3   
    11     6     7 ar  
    12     6    12 ar  
    13     6    20 1   
    14     7     8 ar  
    15     7    27 1   
    16     8    10 ar  
    17     8    17 1   
    18     9    16 2   
    19     9    17 1   
    20     9    19 1   
    21    10    11 ar  
    22    10    19 1   
    23    11    12 ar  
    24    11    28 1   
    25    12    29 1   
    26    13    14 1   
    27    13    18 1   
    28    13    35 1   
    29    13    44 1   
    30    14    15 1   
    31    14    36 1   
    32    14    37 1   
    33    15    38 1   
    34    15    39 1   
    35    15    40 1   
    36    17    44 1   
    37    18    41 1   
    38    19    43 1   
    39    20    42 1   
    40    21    22 ar  
    41    22    23 1   
    42    30    43 1   
    43    31    43 1   
    44    32    43 1   
    45    33    44 1   
    46    34    44 1   
@<TRIPOS>SUBSTRUCTURE
     1 NR8         1 TEMP              0 ****  ****    0 ROOT
