@<TRIPOS>MOLECULE
NR9
   37    40     1     0     0
SMALL
abcg2


@<TRIPOS>ATOM
      1 CAA          3.8920     1.0780    -1.3850 ca         1 NR9      -0.085000
      2 CAB          2.8990     0.7730    -0.4150 ca         1 NR9      -0.074800
      3 CAC          3.1020    -0.3000     0.4240 ca         1 NR9      -0.061000
      4 CAD          5.0170     0.3180    -1.5160 ca         1 NR9      -0.084000
      5 CAE          5.2340    -0.7910    -0.6670 ca         1 NR9       0.279000
      6 CAF          4.2620    -1.0940     0.3170 ca         1 NR9      -0.090000
      7 NAG          6.3680    -1.5140    -0.8130 nb         1 NR9      -0.660000
      8 CAH          6.5650    -2.5220    -0.0040 ca         1 NR9       0.358900
      9 CAI          4.5120    -2.1930     1.1700 ca         1 NR9      -0.055000
     10 CAJ          5.6640    -2.9070     1.0120 ca         1 NR9      -0.168000
     11 CAK          1.7270     1.6360    -0.3650 ce         1 NR9      -0.046200
     12 CAL          0.4950     1.3700     0.0810 cd         1 NR9      -0.134600
     13 CAM         -0.6120     2.3890     0.0520 c          1 NR9       0.719700
     14 NAN         -1.7980     1.8920     0.5090 nc         1 NR9      -0.740100
     15 CAO         -1.7030     0.6540     0.8900 cd         1 NR9       0.733100
     16 SAP         -0.1260    -0.1350     0.7150 ss         1 NR9      -0.251800
     17 OAQ         -0.4490     3.5230    -0.3440 o          1 NR9      -0.510100
     18 NAR         -2.6950    -0.0530     1.3920 nu         1 NR9      -0.862400
     19 CAS         -4.0400     0.4640     1.5830 c3         1 NR9       0.293100
     20 CAT         -5.0120    -0.1380     0.6230 cc         1 NR9      -0.261300
     21 SAU         -4.8370     0.0820    -1.0780 ss         1 NR9       0.246000
     22 CAV         -6.2340    -0.8560    -1.4050 cc         1 NR9      -0.239000
     23 CAW         -6.8090    -1.3130    -0.2600 cd         1 NR9      -0.138000
     24 CAX         -6.1030    -0.9020     0.9050 cd         1 NR9      -0.117000
     25 HAA          3.7430     1.9270    -2.0400 ha         1 NR9       0.122000
     26 HAC          2.4080    -0.5280     1.2240 ha         1 NR9       0.123000
     27 HAD          5.7660     0.5560    -2.2610 ha         1 NR9       0.136000
     28 HAH          7.4840    -3.0830    -0.1390 h4         1 NR9       0.021100
     29 HAI          3.7890    -2.4570     1.9320 ha         1 NR9       0.121000
     30 HAJ          5.8980    -3.7510     1.6450 ha         1 NR9       0.126000
     31 HAK          1.8650     2.6350    -0.7690 ha         1 NR9       0.208000
     32 HNAR        -2.5340    -1.0160     1.6470 hn         1 NR9       0.510000
     33 HAS         -4.3560     0.2370     2.6020 h1         1 NR9       0.081200
     34 HASA        -4.0010     1.5470     1.4830 h1         1 NR9       0.081200
     35 HAV         -6.5580    -1.0140    -2.4220 h4         1 NR9       0.153000
     36 HAW         -7.7000    -1.9250    -0.2430 ha         1 NR9       0.136000
     37 HAX         -6.3940    -1.1640     1.9130 ha         1 NR9       0.131000
@<TRIPOS>BOND
     1     1     2 ar  
     2     1     4 ar  
     3     1    25 1   
     4     2     3 ar  
     5     2    11 1   
     6     3     6 ar  
     7     3    26 1   
     8     4     5 ar  
     9     4    27 1   
    10     5     6 ar  
    11     5     7 ar  
    12     6     9 ar  
    13     7     8 ar  
    14     8    10 ar  
    15     8    28 1   
    16     9    10 ar  
    17     9    29 1   
    18    10    30 1   
    19    11    12 2   
    20    11    31 1   
    21    12    13 1   
    22    12    16 1   
    23    13    14 1   
    24    13    17 2   
    25    14    15 2   
    26    15    16 1   
    27    15    18 1   
    28    18    19 1   
    29    18    32 1   
    30    19    20 1   
    31    19    33 1   
    32    19    34 1   
    33    20    21 1   
    34    20    24 2   
    35    21    22 1   
    36    22    23 2   
    37    22    35 1   
    38    23    24 1   
    39    23    36 1   
    40    24    37 1   
@<TRIPOS>SUBSTRUCTURE
     1 NR9         1 TEMP              0 ****  ****    0 ROOT
