@<TRIPOS>MOLECULE
NR9
   37    40     1     0     0
SMALL
No Charge or Current Charge


@<TRIPOS>ATOM
      1 CAA          4.2000     1.3760    -0.8120 ca         1 NR9      -0.085000
      2 CAB          3.1270     0.9910     0.0110 ca         1 NR9      -0.074800
      3 CAC          3.1330    -0.2940     0.5880 ca         1 NR9      -0.061000
      4 CAD          5.2530     0.4810    -1.0750 ca         1 NR9      -0.084000
      5 CAE          5.2640    -0.8090    -0.5180 ca         1 NR9       0.279000
      6 CAF          4.1880    -1.1890     0.3240 ca         1 NR9      -0.090000
      7 NAG          6.2910    -1.6510    -0.7880 nb         1 NR9      -0.660000
      8 CAH          6.2810    -2.8860    -0.2330 ca         1 NR9       0.358900
      9 CAI          4.1840    -2.4720     0.9000 ca         1 NR9      -0.055000
     10 CAJ          5.2530    -3.3330     0.6120 ca         1 NR9      -0.168000
     11 CAK          2.0280     1.9600     0.2840 ce         1 NR9      -0.046200
     12 CAL          0.6620     1.7620     0.3210 cd         1 NR9      -0.134600
     13 CAM         -0.3490     2.8110     0.5530 c          1 NR9       0.719700
     14 NAN         -1.6070     2.2920     0.4920 nc         1 NR9      -0.740100
     15 CAO         -1.6430     1.0100     0.2420 cd         1 NR9       0.733100
     16 SAP         -0.0910     0.1930     0.0300 ss         1 NR9      -0.251800
     17 OAQ         -0.1170     3.9890     0.7690 o          1 NR9      -0.510100
     18 NAR         -2.8300     0.3770     0.1540 nu         1 NR9      -0.862400
     19 CAS         -4.1520     0.9570     0.3710 c3         1 NR9       0.293100
     20 CAT         -5.1670    -0.1340     0.2040 cc         1 NR9      -0.261300
     21 SAU         -6.2550    -0.1550    -1.1820 ss         1 NR9       0.246000
     22 CAV         -7.0180    -1.6320    -0.6000 cc         1 NR9      -0.239000
     23 CAW         -6.4550    -2.0460     0.5800 cd         1 NR9      -0.138000
     24 CAX         -5.4100    -1.2000     1.0360 cd         1 NR9      -0.117000
     25 HAA          4.2170     2.3680    -1.2580 ha         1 NR9       0.122000
     26 HAC          2.3270    -0.5940     1.2520 ha         1 NR9       0.123000
     27 HAD          6.0710     0.7910    -1.7190 ha         1 NR9       0.136000
     28 HAH          7.1230    -3.5340    -0.4730 h4         1 NR9       0.021100
     29 HAI          3.3740    -2.7950     1.5510 ha         1 NR9       0.121000
     30 HAJ          5.2910    -4.3330     1.0330 ha         1 NR9       0.126000
     31 HAK          2.3560     2.9920     0.4270 ha         1 NR9       0.208000
     32 HNAR        -2.7690    -0.6220    -0.0110 hn         1 NR9       0.510000
     33 HAS         -4.2290     1.3810     1.3820 h1         1 NR9       0.081200
     34 HASA        -4.3440     1.7650    -0.3500 h1         1 NR9       0.081200
     35 HAV         -7.8220    -2.0790    -1.1710 h4         1 NR9       0.153000
     36 HAW         -6.7780    -2.9360     1.1150 ha         1 NR9       0.136000
     37 HAX         -4.8580    -1.3780     1.9550 ha         1 NR9       0.131000
@<TRIPOS>BOND
     1     1     2 ar  
     2     1     4 ar  
     3     1    25 1   
     4     2     3 ar  
     5     2    11 1   
     6     3     6 ar  
     7     3    26 1   
     8     4     5 ar  
     9     4    27 1   
    10     5     6 ar  
    11     5     7 ar  
    12     6     9 ar  
    13     7     8 ar  
    14     8    10 ar  
    15     8    28 1   
    16     9    10 ar  
    17     9    29 1   
    18    10    30 1   
    19    11    12 2   
    20    11    31 1   
    21    12    13 1   
    22    12    16 1   
    23    13    14 1   
    24    13    17 2   
    25    14    15 2   
    26    15    16 1   
    27    15    18 1   
    28    18    19 1   
    29    18    32 1   
    30    19    20 1   
    31    19    33 1   
    32    19    34 1   
    33    20    21 1   
    34    20    24 2   
    35    21    22 1   
    36    22    23 2   
    37    22    35 1   
    38    23    24 1   
    39    23    36 1   
    40    24    37 1   
@<TRIPOS>SUBSTRUCTURE
     1 NR9         1 TEMP              0 ****  ****    0 ROOT
