@<TRIPOS>MOLECULE
NRA
   27    29     1     0     0
SMALL
bcc


@<TRIPOS>ATOM
      1 C10         -2.3050    -1.1320     0.0170 ca         1 NRA      -0.092000
      2 C13         -3.3940     1.0150    -0.0800 ca         1 NRA       0.191100
      3 C15         -2.1680     1.6510    -0.0750 ca         1 NRA      -0.190000
      4 C02          3.7130     1.0770     0.0830 ca         1 NRA       0.248100
      5 C03          3.8170    -0.3150     0.1360 ca         1 NRA      -0.332000
      6 C04          2.6680    -1.0860     0.1350 ca         1 NRA       0.292100
      7 O05          2.7730    -2.4080     0.1870 oh         1 NRA      -0.502100
      8 C06          1.3920    -0.4700     0.0800 ca         1 NRA      -0.391600
      9 C07          0.1830    -1.2560     0.0760 c          1 NRA       0.632300
     10 O08          0.2020    -2.4950     0.1180 o          1 NRA      -0.601100
     11 C09         -1.0530    -0.4990     0.0220 ca         1 NRA      -0.233600
     12 C11         -3.4620    -0.3980    -0.0320 ca         1 NRA       0.008100
     13 O12         -4.7080    -0.9130    -0.0400 oh         1 NRA      -0.518100
     14 O14         -4.5040     1.7560    -0.1300 oh         1 NRA      -0.481100
     15 C16         -1.0060     0.8900    -0.0250 ca         1 NRA       0.185100
     16 O17          0.1590     1.5730    -0.0230 os         1 NRA      -0.208200
     17 C18          1.3390     0.9290     0.0290 ca         1 NRA       0.251100
     18 C19          2.4750     1.7140     0.0300 ca         1 NRA      -0.258000
     19 H10         -2.3490    -2.2140     0.0520 ha         1 NRA       0.158000
     20 H15         -2.1160     2.7320    -0.1110 ha         1 NRA       0.173000
     21 HO01         5.6020     1.3340     0.1130 ho         1 NRA       0.438000
     22 H03          4.7860    -0.7980     0.1790 ha         1 NRA       0.156000
     23 HO05         1.8550    -2.7770     0.1750 ho         1 NRA       0.486000
     24 HO12        -4.6890    -1.8760    -0.0130 ho         1 NRA       0.443000
     25 HO14        -5.2920     1.1970    -0.1200 ho         1 NRA       0.455000
     26 H19          2.4060     2.7930    -0.0090 ha         1 NRA       0.171000
     27 O01          4.7950     1.8610     0.0820 oh         1 NRA      -0.481100
@<TRIPOS>BOND
     1     1    11 ar  
     2     1    12 ar  
     3     1    19 1   
     4     2     3 ar  
     5     2    12 ar  
     6     2    14 1   
     7     3    15 ar  
     8     3    20 1   
     9     4     5 ar  
    10     4    18 ar  
    11     4    27 1   
    12     5     6 ar  
    13     5    22 1   
    14     6     7 1   
    15     6     8 ar  
    16     7    23 1   
    17     8     9 1   
    18     8    17 ar  
    19     9    10 2   
    20     9    11 1   
    21    11    15 ar  
    22    12    13 1   
    23    13    24 1   
    24    14    25 1   
    25    15    16 1   
    26    16    17 1   
    27    17    18 ar  
    28    18    26 1   
    29    21    27 1   
@<TRIPOS>SUBSTRUCTURE
     1 NRA         1 TEMP              0 ****  ****    0 ROOT
