@<TRIPOS>MOLECULE
NRA
   27    29     1     0     0
SMALL
No Charge or Current Charge


@<TRIPOS>ATOM
      1 C10         -2.3580    -1.1210     0.0170 ca         1 NRA      -0.074000
      2 C13         -3.4690     1.0440    -0.0830 ca         1 NRA       0.191100
      3 C15         -2.2260     1.6890    -0.0770 ca         1 NRA      -0.172000
      4 C02          3.7850     1.0880     0.0830 ca         1 NRA       0.248100
      5 C03          3.8700    -0.3050     0.1330 ca         1 NRA      -0.314000
      6 C04          2.7030    -1.0740     0.1330 ca         1 NRA       0.292100
      7 O05          2.8130    -2.4230     0.1820 oh         1 NRA      -0.541100
      8 C06          1.4420    -0.4590     0.0820 ca         1 NRA      -0.391600
      9 C07          0.1740    -1.2410     0.0800 c          1 NRA       0.632300
     10 O08          0.1900    -2.4660     0.1230 o          1 NRA      -0.601100
     11 C09         -1.1030    -0.4700     0.0240 ca         1 NRA      -0.233600
     12 C11         -3.5430    -0.3630    -0.0360 ca         1 NRA       0.008100
     13 O12         -4.7680    -0.9840    -0.0430 oh         1 NRA      -0.557100
     14 O14         -4.6190     1.7710    -0.1350 oh         1 NRA      -0.520100
     15 C16         -1.0460     0.9340    -0.0230 ca         1 NRA       0.185100
     16 O17          0.1590     1.5920    -0.0180 os         1 NRA      -0.208200
     17 C18          1.3680     0.9420     0.0320 ca         1 NRA       0.251100
     18 C19          2.5370     1.7110     0.0330 ca         1 NRA      -0.240000
     19 H10         -2.4080    -2.2080     0.0540 ha         1 NRA       0.140000
     20 H15         -2.1760     2.7730    -0.1130 ha         1 NRA       0.155000
     21 HO01         5.6820     1.2320     0.1220 ho         1 NRA       0.477000
     22 H03          4.8350    -0.8010     0.1730 ha         1 NRA       0.138000
     23 HO05         1.8800    -2.7590     0.1720 ho         1 NRA       0.525000
     24 HO12        -4.6420    -1.9600    -0.0060 ho         1 NRA       0.482000
     25 HO14        -5.3480     1.1090    -0.1290 ho         1 NRA       0.494000
     26 H19          2.4720     2.7940    -0.0070 ha         1 NRA       0.153000
     27 O01          4.9150     1.8410     0.0830 oh         1 NRA      -0.520100
@<TRIPOS>BOND
     1     1    11 ar  
     2     1    12 ar  
     3     1    19 1   
     4     2     3 ar  
     5     2    12 ar  
     6     2    14 1   
     7     3    15 ar  
     8     3    20 1   
     9     4     5 ar  
    10     4    18 ar  
    11     4    27 1   
    12     5     6 ar  
    13     5    22 1   
    14     6     7 1   
    15     6     8 ar  
    16     7    23 1   
    17     8     9 1   
    18     8    17 ar  
    19     9    10 2   
    20     9    11 1   
    21    11    15 ar  
    22    12    13 1   
    23    13    24 1   
    24    14    25 1   
    25    15    16 1   
    26    16    17 1   
    27    17    18 ar  
    28    18    26 1   
    29    21    27 1   
@<TRIPOS>SUBSTRUCTURE
     1 NRA         1 TEMP              0 ****  ****    0 ROOT
