@<TRIPOS>MOLECULE
NRB
   83    84     1     0     0
SMALL
abcg2


@<TRIPOS>ATOM
      1 C1           6.6630     2.7480    -0.3890 c3         1 NRB      -0.090100
      2 C2           6.5520     1.2670    -0.7240 c3         1 NRB      -0.092400
      3 C3           5.5020     0.5130     0.0780 c3         1 NRB       0.181300
      4 O1           4.1900     1.0120    -0.2550 os         1 NRB      -0.455100
      5 C4           3.5740     1.8680     0.5510 c          1 NRB       0.610100
      6 O2           4.0220     2.2760     1.5910 o          1 NRB      -0.469000
      7 C5           2.2220     2.2680    -0.0020 c3         1 NRB      -0.225700
      8 C6           1.8660     3.7030     0.4060 c3         1 NRB      -0.079100
      9 C7           1.1590     1.3280     0.5580 c          1 NRB       0.587100
     10 O3           1.3480     0.7820     1.6210 o          1 NRB      -0.514100
     11 C8          -0.1670     1.1960    -0.1700 c3         1 NRB      -0.171700
     12 C9          -0.2080     1.7260    -1.6010 c3         1 NRB      -0.079100
     13 C10         -0.7820    -0.2160     0.0450 c3         1 NRB       0.195300
     14 O4          -2.0280    -0.3170    -0.6290 os         1 NRB      -0.464000
     15 C11         -3.1540     0.0900     0.0620 c6         1 NRB       0.357300
     16 O5          -3.2560     1.4830    -0.0160 os         1 NRB      -0.480000
     17 C12         -4.3700     1.9820     0.7040 c6         1 NRB       0.182300
     18 C13         -4.3380     3.4930     0.6250 c3         1 NRB      -0.087100
     19 C14         -5.6680     1.3980     0.1600 c6         1 NRB      -0.108400
     20 C15         -5.6300    -0.1320     0.1610 c6         1 NRB       0.194500
     21 N1          -6.8450    -0.7120    -0.3990 n3         1 NRB      -0.693600
     22 C16         -6.7680    -2.1520    -0.5510 c3         1 NRB       0.148600
     23 C17         -8.0090    -0.3670     0.3950 c3         1 NRB       0.148600
     24 C18         -4.3670    -0.6010    -0.5650 c6         1 NRB       0.158300
     25 O6          -4.4850    -0.3100    -1.9330 oh         1 NRB      -0.688000
     26 C19          0.0710    -1.4610    -0.3490 c3         1 NRB      -0.049700
     27 C20          1.2560    -1.1680    -1.2610 c3         1 NRB      -0.088100
     28 C21          0.3620    -2.2250     0.9620 c3         1 NRB      -0.069400
     29 C22          1.2670    -3.4830     1.0180 c3         1 NRB      -0.149700
     30 C23          1.1940    -4.4230    -0.1820 c3         1 NRB      -0.079100
     31 C24          2.6680    -3.0750     1.4460 c          1 NRB       0.575300
     32 O7           2.9720    -3.1100     2.6240 o          1 NRB      -0.528100
     33 C25          3.6070    -2.5510     0.4340 ce         1 NRB      -0.305200
     34 C26          4.5510    -1.6660     0.7600 c2         1 NRB      -0.141200
     35 C27          5.5070    -1.0010    -0.1810 c3         1 NRB      -0.038500
     36 C28          5.3140    -1.3930    -1.6390 c3         1 NRB      -0.084100
     37 H1C1         7.4960     3.1920    -0.9350 hc         1 NRB       0.038700
     38 H1C2         5.7670     3.3040    -0.6700 hc         1 NRB       0.038700
     39 H1C3         6.8390     2.9090     0.6750 hc         1 NRB       0.038700
     40 H2C1         6.3650     1.1470    -1.7940 hc         1 NRB       0.049200
     41 H2C2         7.5110     0.7820    -0.5230 hc         1 NRB       0.049200
     42 H3           5.6860     0.6730     1.1440 h1         1 NRB       0.073700
     43 H5           2.2420     2.1990    -1.0910 hc         1 NRB       0.092700
     44 H6C1         2.6050     4.4020     0.0160 hc         1 NRB       0.051033
     45 H6C2         0.8980     3.9920     0.0020 hc         1 NRB       0.051033
     46 H6C3         1.8290     3.8090     1.4890 hc         1 NRB       0.051033
     47 H8          -0.8200     1.8680     0.4030 hc         1 NRB       0.082700
     48 H9C1         0.4990     1.2480    -2.2750 hc         1 NRB       0.044367
     49 H9C2        -1.2050     1.5850    -2.0120 hc         1 NRB       0.044367
     50 H9C3        -0.0080     2.7980    -1.6260 hc         1 NRB       0.044367
     51 H10         -0.9800    -0.2930     1.1210 h1         1 NRB       0.047700
     52 H11         -3.0860    -0.2160     1.1240 h2         1 NRB       0.021700
     53 H12         -4.2740     1.6810     1.7600 h1         1 NRB       0.024700
     54 H131        -4.4490     3.8370    -0.4050 hc         1 NRB       0.045700
     55 H132        -5.1550     3.9140     1.2100 hc         1 NRB       0.045700
     56 H133        -3.4020     3.8880     1.0210 hc         1 NRB       0.045700
     57 H141        -6.4800     1.7690     0.7870 hc         1 NRB       0.066200
     58 H142        -5.8490     1.7640    -0.8540 hc         1 NRB       0.066200
     59 H15         -5.5080    -0.4650     1.2120 h1         1 NRB       0.014700
     60 H161        -7.7350    -2.5290    -0.8820 h1         1 NRB       0.031200
     61 H162        -6.0410    -2.4340    -1.3120 h1         1 NRB       0.031200
     62 H163        -6.5100    -2.6790     0.3810 h1         1 NRB       0.031200
     63 H171        -8.1990     0.7050     0.3830 h1         1 NRB       0.031200
     64 H172        -8.8920    -0.8510    -0.0230 h1         1 NRB       0.031200
     65 H173        -7.9210    -0.6800     1.4480 h1         1 NRB       0.031200
     66 H18         -4.2270    -1.6780    -0.3930 h1         1 NRB       0.036700
     67 H6          -3.6590    -0.5550    -2.3630 ho         1 NRB       0.513000
     68 H19         -0.5990    -2.0950    -0.9370 hc         1 NRB       0.056700
     69 H201         2.0530    -0.5910    -0.7950 hc         1 NRB       0.039033
     70 H202         1.7100    -2.0910    -1.6080 hc         1 NRB       0.039033
     71 H203         0.9330    -0.6470    -2.1600 hc         1 NRB       0.039033
     72 H211         0.7330    -1.5210     1.7070 hc         1 NRB       0.051700
     73 H212        -0.6170    -2.5400     1.3340 hc         1 NRB       0.051700
     74 H22          0.8880    -4.0480     1.8740 hc         1 NRB       0.066700
     75 H231         1.6170    -4.0120    -1.0960 hc         1 NRB       0.037367
     76 H232         1.7200    -5.3540     0.0320 hc         1 NRB       0.037367
     77 H233         0.1550    -4.6760    -0.3910 hc         1 NRB       0.037367
     78 H25          3.4620    -2.8530    -0.5940 ha         1 NRB       0.185000
     79 H26          4.6440    -1.3680     1.8010 ha         1 NRB       0.193000
     80 H27          6.5100    -1.3240     0.1330 hc         1 NRB       0.065700
     81 H281         4.3340    -1.0960    -2.0160 hc         1 NRB       0.040033
     82 H282         6.0710    -0.9400    -2.2770 hc         1 NRB       0.040033
     83 H283         5.4030    -2.4720    -1.7620 hc         1 NRB       0.040033
@<TRIPOS>BOND
     1     1     2 1   
     2     1    37 1   
     3     1    38 1   
     4     1    39 1   
     5     2     3 1   
     6     2    40 1   
     7     2    41 1   
     8     3     4 1   
     9     3    35 1   
    10     3    42 1   
    11     4     5 1   
    12     5     6 2   
    13     5     7 1   
    14     7     8 1   
    15     7     9 1   
    16     7    43 1   
    17     8    44 1   
    18     8    45 1   
    19     8    46 1   
    20     9    10 2   
    21     9    11 1   
    22    11    12 1   
    23    11    13 1   
    24    11    47 1   
    25    12    48 1   
    26    12    49 1   
    27    12    50 1   
    28    13    14 1   
    29    13    26 1   
    30    13    51 1   
    31    14    15 1   
    32    15    16 1   
    33    15    24 1   
    34    15    52 1   
    35    16    17 1   
    36    17    18 1   
    37    17    19 1   
    38    17    53 1   
    39    18    54 1   
    40    18    55 1   
    41    18    56 1   
    42    19    20 1   
    43    19    57 1   
    44    19    58 1   
    45    20    21 1   
    46    20    24 1   
    47    20    59 1   
    48    21    22 1   
    49    21    23 1   
    50    22    60 1   
    51    22    61 1   
    52    22    62 1   
    53    23    63 1   
    54    23    64 1   
    55    23    65 1   
    56    24    25 1   
    57    24    66 1   
    58    25    67 1   
    59    26    27 1   
    60    26    28 1   
    61    26    68 1   
    62    27    69 1   
    63    27    70 1   
    64    27    71 1   
    65    28    29 1   
    66    28    72 1   
    67    28    73 1   
    68    29    30 1   
    69    29    31 1   
    70    29    74 1   
    71    30    75 1   
    72    30    76 1   
    73    30    77 1   
    74    31    32 2   
    75    31    33 1   
    76    33    34 2   
    77    33    78 1   
    78    34    35 1   
    79    34    79 1   
    80    35    36 1   
    81    35    80 1   
    82    36    81 1   
    83    36    82 1   
    84    36    83 1   
@<TRIPOS>SUBSTRUCTURE
     1 NRB         1 TEMP              0 ****  ****    0 ROOT
