@<TRIPOS>MOLECULE
NRB
   83    84     1     0     0
SMALL
No Charge or Current Charge


@<TRIPOS>ATOM
      1 C1           6.7700     2.8380    -0.9040 c3         1 NRB      -0.090100
      2 C2           6.6270     1.3520    -1.2940 c3         1 NRB      -0.092400
      3 C3           5.7060     0.5440    -0.3430 c3         1 NRB       0.181300
      4 O1           4.3710     1.0730    -0.5090 os         1 NRB      -0.455100
      5 C4           3.4880     1.0690     0.5440 c          1 NRB       0.610100
      6 O2           3.8290     0.8640     1.7000 o          1 NRB      -0.469000
      7 C5           2.2660     1.9060     0.1670 c3         1 NRB      -0.225700
      8 C6           2.5950     3.4220     0.2520 c3         1 NRB      -0.079100
      9 C7           1.0220     1.5710     1.0190 c          1 NRB       0.587100
     10 O3           1.0490     1.7060     2.2360 o          1 NRB      -0.514100
     11 C8          -0.3390     1.2990     0.3200 c3         1 NRB      -0.171700
     12 C9          -0.4760     1.8880    -1.1200 c3         1 NRB      -0.079100
     13 C10         -0.8680    -0.1700     0.5090 c3         1 NRB       0.195300
     14 O4          -2.0210    -0.3730    -0.3380 os         1 NRB      -0.464000
     15 C11         -3.3230    -0.0990     0.2210 c6         1 NRB       0.357300
     16 O5          -3.4530     1.3200     0.4030 os         1 NRB      -0.480000
     17 C12         -4.6900     1.7090     1.0190 c6         1 NRB       0.182300
     18 C13         -4.6170     3.2360     1.2510 c3         1 NRB      -0.087100
     19 C14         -5.8830     1.2990     0.1210 c6         1 NRB      -0.108400
     20 C15         -5.8460    -0.2280    -0.2020 c6         1 NRB       0.194500
     21 N1          -6.9950    -0.6620    -1.0830 n3         1 NRB      -0.693600
     22 C16         -6.9430    -2.0980    -1.4570 c3         1 NRB       0.148600
     23 C17         -8.3370    -0.3080    -0.5540 c3         1 NRB       0.148600
     24 C18         -4.4210    -0.6000    -0.7730 c6         1 NRB       0.158300
     25 O6          -4.1840    -0.0550    -2.0960 oh         1 NRB      -0.688000
     26 C19          0.0820    -1.3920     0.2550 c3         1 NRB      -0.049700
     27 C20          0.8220    -1.3120    -1.1050 c3         1 NRB      -0.088100
     28 C21          0.9880    -1.6980     1.4980 c3         1 NRB      -0.069400
     29 C22          1.6630    -3.1080     1.6660 c3         1 NRB      -0.149700
     30 C23          1.1290    -4.2630     0.7780 c3         1 NRB      -0.079100
     31 C24          3.2050    -3.0310     1.6510 c          1 NRB       0.575300
     32 O7           3.8630    -3.3440     2.6350 o          1 NRB      -0.528100
     33 C25          3.8520    -2.4180     0.4580 ce         1 NRB      -0.305200
     34 C26          5.0360    -1.7620     0.5020 c2         1 NRB      -0.141200
     35 C27          5.7090    -0.9930    -0.6260 c3         1 NRB      -0.038500
     36 C28          5.1670    -1.3740    -2.0300 c3         1 NRB      -0.084100
     37 H1C1         7.4650     3.3460    -1.5840 hc         1 NRB       0.038700
     38 H1C2         5.8050     3.3540    -0.9590 hc         1 NRB       0.038700
     39 H1C3         7.1580     2.9370     0.1170 hc         1 NRB       0.038700
     40 H2C1         6.2470     1.2940    -2.3210 hc         1 NRB       0.049200
     41 H2C2         7.6250     0.8960    -1.2980 hc         1 NRB       0.049200
     42 H3           6.0780     0.7130     0.6770 h1         1 NRB       0.073700
     43 H5           2.0810     1.7010    -0.8890 hc         1 NRB       0.092700
     44 H6C1         3.4210     3.6810    -0.4220 hc         1 NRB       0.051033
     45 H6C2         1.7270     4.0290    -0.0330 hc         1 NRB       0.051033
     46 H6C3         2.8870     3.7030     1.2710 hc         1 NRB       0.051033
     47 H8          -1.0340     1.8840     0.9320 hc         1 NRB       0.082700
     48 H9C1         0.0960     1.3180    -1.8590 hc         1 NRB       0.044367
     49 H9C2        -1.5220     1.8940    -1.4460 hc         1 NRB       0.044367
     50 H9C3        -0.1330     2.9290    -1.1480 hc         1 NRB       0.044367
     51 H10         -1.1890    -0.2530     1.5570 h1         1 NRB       0.047700
     52 H11         -3.4300    -0.6150     1.1870 h2         1 NRB       0.021700
     53 H12         -4.7710     1.2100     1.9960 h1         1 NRB       0.024700
     54 H131        -4.5120     3.7780     0.3030 hc         1 NRB       0.045700
     55 H132        -5.5230     3.6010     1.7480 hc         1 NRB       0.045700
     56 H133        -3.7620     3.4960     1.8860 hc         1 NRB       0.045700
     57 H141        -6.8070     1.5660     0.6470 hc         1 NRB       0.066200
     58 H142        -5.8680     1.8790    -0.8120 hc         1 NRB       0.066200
     59 H15         -5.9450    -0.7560     0.7590 h1         1 NRB       0.014700
     60 H161        -7.8040    -2.3680    -2.0830 h1         1 NRB       0.031200
     61 H162        -6.0410    -2.3290    -2.0370 h1         1 NRB       0.031200
     62 H163        -6.9570    -2.7360    -0.5630 h1         1 NRB       0.031200
     63 H171        -8.4770     0.7790    -0.5070 h1         1 NRB       0.031200
     64 H172        -9.1280    -0.7030    -1.2060 h1         1 NRB       0.031200
     65 H173        -8.4840    -0.7250     0.4520 h1         1 NRB       0.031200
     66 H18         -4.3340    -1.6950    -0.8090 h1         1 NRB       0.036700
     67 H6          -3.2400     0.2230    -2.0700 ho         1 NRB       0.513000
     68 H19         -0.6000    -2.2460     0.1700 hc         1 NRB       0.056700
     69 H201         1.6490    -0.5960    -1.0720 hc         1 NRB       0.039033
     70 H202         1.2250    -2.2830    -1.4040 hc         1 NRB       0.039033
     71 H203         0.1330    -1.0100    -1.9020 hc         1 NRB       0.039033
     72 H211         1.7630    -0.9310     1.5760 hc         1 NRB       0.051700
     73 H212         0.3700    -1.5530     2.3940 hc         1 NRB       0.051700
     74 H22          1.4190    -3.4210     2.6900 hc         1 NRB       0.066700
     75 H231         1.4030    -4.1370    -0.2740 hc         1 NRB       0.037367
     76 H232         1.5560    -5.2170     1.1110 hc         1 NRB       0.037367
     77 H233         0.0390    -4.3490     0.8530 hc         1 NRB       0.037367
     78 H25          3.2510    -2.4150    -0.4440 ha         1 NRB       0.185000
     79 H26          5.5990    -1.7260     1.4400 ha         1 NRB       0.193000
     80 H27          6.7620    -1.3010    -0.6200 hc         1 NRB       0.065700
     81 H281         4.1380    -1.0230    -2.1710 hc         1 NRB       0.040033
     82 H282         5.7860    -0.9390    -2.8230 hc         1 NRB       0.040033
     83 H283         5.1810    -2.4620    -2.1640 hc         1 NRB       0.040033
@<TRIPOS>BOND
     1     1     2 1   
     2     1    37 1   
     3     1    38 1   
     4     1    39 1   
     5     2     3 1   
     6     2    40 1   
     7     2    41 1   
     8     3     4 1   
     9     3    35 1   
    10     3    42 1   
    11     4     5 1   
    12     5     6 2   
    13     5     7 1   
    14     7     8 1   
    15     7     9 1   
    16     7    43 1   
    17     8    44 1   
    18     8    45 1   
    19     8    46 1   
    20     9    10 2   
    21     9    11 1   
    22    11    12 1   
    23    11    13 1   
    24    11    47 1   
    25    12    48 1   
    26    12    49 1   
    27    12    50 1   
    28    13    14 1   
    29    13    26 1   
    30    13    51 1   
    31    14    15 1   
    32    15    16 1   
    33    15    24 1   
    34    15    52 1   
    35    16    17 1   
    36    17    18 1   
    37    17    19 1   
    38    17    53 1   
    39    18    54 1   
    40    18    55 1   
    41    18    56 1   
    42    19    20 1   
    43    19    57 1   
    44    19    58 1   
    45    20    21 1   
    46    20    24 1   
    47    20    59 1   
    48    21    22 1   
    49    21    23 1   
    50    22    60 1   
    51    22    61 1   
    52    22    62 1   
    53    23    63 1   
    54    23    64 1   
    55    23    65 1   
    56    24    25 1   
    57    24    66 1   
    58    25    67 1   
    59    26    27 1   
    60    26    28 1   
    61    26    68 1   
    62    27    69 1   
    63    27    70 1   
    64    27    71 1   
    65    28    29 1   
    66    28    72 1   
    67    28    73 1   
    68    29    30 1   
    69    29    31 1   
    70    29    74 1   
    71    30    75 1   
    72    30    76 1   
    73    30    77 1   
    74    31    32 2   
    75    31    33 1   
    76    33    34 2   
    77    33    78 1   
    78    34    35 1   
    79    34    79 1   
    80    35    36 1   
    81    35    80 1   
    82    36    81 1   
    83    36    82 1   
    84    36    83 1   
@<TRIPOS>SUBSTRUCTURE
     1 NRB         1 TEMP              0 ****  ****    0 ROOT
