@<TRIPOS>MOLECULE
NRC
   37    38     1     0     0
SMALL
No Charge or Current Charge


@<TRIPOS>ATOM
      1 N1           6.7060     2.4880    18.1900 nb         1 NRC      -0.649000
      2 C4           7.3130     0.7970    19.8460 ca         1 NRC      -0.091000
      3 C5           7.4980     2.0450    19.1960 ca         1 NRC       0.343900
      4 C6           5.6880     1.6940    17.7930 ca         1 NRC       0.324900
      5 C7           5.4250     0.4460    18.3760 ca         1 NRC      -0.150000
      6 C8           6.2420    -0.0220    19.4210 ca         1 NRC      -0.065300
      7 C10         11.3350    -0.3440    22.3970 ca         1 NRC      -0.068300
      8 C13         14.0370    -1.0490    21.9560 ca         1 NRC      -0.090000
      9 C15         11.6930    -1.6840    22.1380 ca         1 NRC      -0.087000
     10 C14         13.0370    -2.0330    21.9190 ca         1 NRC       0.122000
     11 C12         13.6920     0.2880    22.2120 ca         1 NRC      -0.100000
     12 C11         12.3480     0.6390    22.4310 ca         1 NRC      -0.074000
     13 C2           9.8600     0.0190    22.6360 c3         1 NRC      -0.157400
     14 C1           9.6420     0.7150    23.9780 c          1 NRC       0.589100
     15 O1           9.9420     1.8800    24.2000 o          1 NRC      -0.466000
     16 O            9.4630    -0.2130    24.9720 os         1 NRC      -0.440100
     17 C            9.3900     0.2520    26.3340 c3         1 NRC       0.151900
     18 C3           9.2810     0.8770    21.5080 c          1 NRC       0.620100
     19 O2           9.7800     1.9420    21.1680 o          1 NRC      -0.544100
     20 N            8.1500     0.3350    20.9080 ns         1 NRC      -0.155000
     21 C9           5.9630    -1.3790    20.0600 c3         1 NRC      -0.054800
     22 H1           8.2970     2.7270    19.4750 h4         1 NRC       0.039100
     23 H2           5.0650     2.0710    16.9830 h4         1 NRC       0.022100
     24 H3           4.5890    -0.1470    18.0120 ha         1 NRC       0.122000
     25 H4          15.0750    -1.3230    21.7860 ha         1 NRC       0.132000
     26 H5          10.9340    -2.4620    22.1060 ha         1 NRC       0.127000
     27 H6          14.4640     1.0530    22.2400 ha         1 NRC       0.124000
     28 H7          12.1000     1.6810    22.6240 ha         1 NRC       0.134000
     29 H8           9.2870    -0.9130    22.6940 hc         1 NRC       0.089700
     30 H9           9.2290    -0.5910    27.0170 h1         1 NRC       0.054367
     31 H10         10.3210     0.7540    26.6280 h1         1 NRC       0.054367
     32 H11          8.5590     0.9580    26.4630 h1         1 NRC       0.054367
     33 H12          7.8650    -0.5570    21.2920 hn         1 NRC       0.151000
     34 H13          6.8220    -2.0510    19.9520 hc         1 NRC       0.049033
     35 H14          5.7450    -1.2740    21.1300 hc         1 NRC       0.049033
     36 H15          5.1000    -1.8750    19.5990 hc         1 NRC       0.049033
     37 Cl          13.4660    -3.7080    21.5980 cl         1 NRC      -0.210000
@<TRIPOS>BOND
     1     1     3 ar  
     2     1     4 ar  
     3     2     3 ar  
     4     2     6 ar  
     5     2    20 1   
     6     3    22 1   
     7     4     5 ar  
     8     4    23 1   
     9     5     6 ar  
    10     5    24 1   
    11     6    21 1   
    12     7     9 ar  
    13     7    12 ar  
    14     7    13 1   
    15     8    10 ar  
    16     8    11 ar  
    17     8    25 1   
    18     9    10 ar  
    19     9    26 1   
    20    10    37 1   
    21    11    12 ar  
    22    11    27 1   
    23    12    28 1   
    24    13    14 1   
    25    13    18 1   
    26    13    29 1   
    27    14    15 2   
    28    14    16 1   
    29    16    17 1   
    30    17    30 1   
    31    17    31 1   
    32    17    32 1   
    33    18    19 2   
    34    18    20 1   
    35    20    33 1   
    36    21    34 1   
    37    21    35 1   
    38    21    36 1   
@<TRIPOS>SUBSTRUCTURE
     1 NRC         1 TEMP              0 ****  ****    0 ROOT
