@<TRIPOS>MOLECULE
NRC
   37    38     1     0     0
SMALL
abcg2


@<TRIPOS>ATOM
      1 N1           7.1890     1.3160    17.4520 nb         1 NRC      -0.649000
      2 C4           7.4030     0.3560    19.6400 ca         1 NRC      -0.091000
      3 C5           7.9230     0.7470    18.4090 ca         1 NRC       0.343900
      4 C6           5.8880     1.4960    17.6980 ca         1 NRC       0.324900
      5 C7           5.2840     1.1250    18.8910 ca         1 NRC      -0.150000
      6 C8           6.0420     0.5470    19.9060 ca         1 NRC      -0.065300
      7 C10         11.5310    -0.4410    22.3000 ca         1 NRC      -0.068300
      8 C13         14.3240    -0.2980    22.4150 ca         1 NRC      -0.090000
      9 C15         12.3000    -1.5510    21.9620 ca         1 NRC      -0.087000
     10 C14         13.6840    -1.4630    22.0190 ca         1 NRC       0.122000
     11 C12         13.5460     0.8050    22.7500 ca         1 NRC      -0.100000
     12 C11         12.1600     0.7380    22.6960 ca         1 NRC      -0.074000
     13 C2          10.0220    -0.5380    22.2170 c3         1 NRC      -0.157400
     14 C1           9.3880     0.0020    23.4950 c          1 NRC       0.589100
     15 O1           8.8520     1.0800    23.5960 o          1 NRC      -0.466000
     16 O            9.5310    -0.8650    24.4950 os         1 NRC      -0.440100
     17 C            9.0370    -0.4470    25.7880 c3         1 NRC       0.151900
     18 C3           9.4470     0.2220    21.0090 c          1 NRC       0.620100
     19 O2          10.0230     1.1560    20.4800 o          1 NRC      -0.544100
     20 N            8.2280    -0.2380    20.6210 ns         1 NRC      -0.155000
     21 C9           5.4380     0.1660    21.2240 c3         1 NRC      -0.054800
     22 H1           8.9730     0.5910    18.1980 h4         1 NRC       0.039100
     23 H2           5.3030     1.9530    16.9080 h4         1 NRC       0.022100
     24 H3           4.2250     1.2950    19.0370 ha         1 NRC       0.122000
     25 H4          15.4040    -0.2520    22.4550 ha         1 NRC       0.132000
     26 H5          11.8270    -2.4720    21.6490 ha         1 NRC       0.127000
     27 H6          14.0300     1.7230    23.0590 ha         1 NRC       0.124000
     28 H7          11.5690     1.6040    22.9610 ha         1 NRC       0.134000
     29 H8           9.7460    -1.5900    22.1350 hc         1 NRC       0.089700
     30 H9           9.2280    -1.2850    26.4520 h1         1 NRC       0.054367
     31 H10          9.5760     0.4380    26.1220 h1         1 NRC       0.054367
     32 H11          7.9720    -0.2340    25.7300 h1         1 NRC       0.054367
     33 H12          7.8100    -0.9700    21.1760 hn         1 NRC       0.151000
     34 H13          5.4740    -0.9170    21.3790 hc         1 NRC       0.049033
     35 H14          5.9860     0.6250    22.0500 hc         1 NRC       0.049033
     36 H15          4.3970     0.4790    21.2760 hc         1 NRC       0.049033
     37 CL          14.6430    -2.8650    21.5850 cl         1 NRC      -0.210000
@<TRIPOS>BOND
     1     1     3 ar  
     2     1     4 ar  
     3     2     3 ar  
     4     2     6 ar  
     5     2    20 1   
     6     3    22 1   
     7     4     5 ar  
     8     4    23 1   
     9     5     6 ar  
    10     5    24 1   
    11     6    21 1   
    12     7     9 ar  
    13     7    12 ar  
    14     7    13 1   
    15     8    10 ar  
    16     8    11 ar  
    17     8    25 1   
    18     9    10 ar  
    19     9    26 1   
    20    10    37 1   
    21    11    12 ar  
    22    11    27 1   
    23    12    28 1   
    24    13    14 1   
    25    13    18 1   
    26    13    29 1   
    27    14    15 2   
    28    14    16 1   
    29    16    17 1   
    30    17    30 1   
    31    17    31 1   
    32    17    32 1   
    33    18    19 2   
    34    18    20 1   
    35    20    33 1   
    36    21    34 1   
    37    21    35 1   
    38    21    36 1   
@<TRIPOS>SUBSTRUCTURE
     1 NRC         1 TEMP              0 ****  ****    0 ROOT
