@<TRIPOS>MOLECULE
NRF
   29    30     1     0     0
SMALL
bcc


@<TRIPOS>ATOM
      1 N            4.4500    -1.4270     0.0340 nu         1 NRF      -0.755000
      2 C            4.7610    -2.7740     0.4570 c3         1 NRF       0.212100
      3 O            1.3420     2.1090    -0.5960 o          1 NRF      -0.592500
      4 CL           4.1850     1.4100    -0.9920 cl         1 NRF      -0.081400
      5 C1           3.2450    -0.8620     0.1150 cc         1 NRF       0.154400
      6 N1           0.7120     0.1440     0.3760 n          1 NRF      -0.130000
      7 C2           2.9600     0.4220    -0.2970 cd         1 NRF      -0.237800
      8 N2           0.9460    -1.1000     0.7680 nd         1 NRF      -0.389300
      9 C3           1.6560     0.9930    -0.2090 c          1 NRF       0.722700
     10 C4           2.1280    -1.5910     0.6550 cc         1 NRF       0.316500
     11 C5          -0.6390     0.5720     0.5130 ca         1 NRF       0.049600
     12 C6          -0.9450     1.7240     1.2220 ca         1 NRF      -0.073000
     13 C7          -2.2700     2.1060     1.3580 ca         1 NRF      -0.129000
     14 C8          -3.2850     1.3440     0.7980 ca         1 NRF      -0.076000
     15 C9          -2.9660     0.1900     0.0950 ca         1 NRF      -0.194300
     16 C10         -1.6410    -0.1980    -0.0540 ca         1 NRF      -0.068000
     17 C11         -4.0510    -0.6770    -0.4650 c3         1 NRF       0.722200
     18 F           -4.3910    -1.6510     0.3930 f          1 NRF      -0.234300
     19 F1          -5.1650     0.0110    -0.7290 f          1 NRF      -0.234300
     20 F2          -3.6810    -1.2800    -1.6010 f          1 NRF      -0.234300
     21 H1           5.8140    -2.9510     0.2590 h1         1 NRF       0.046700
     22 H2           4.5890    -2.9170     1.5250 h1         1 NRF       0.046700
     23 H3           4.1840    -3.5190    -0.0930 h1         1 NRF       0.046700
     24 H5           2.2430    -2.6090     1.0010 h4         1 NRF       0.049800
     25 H6          -0.1630     2.3120     1.6810 ha         1 NRF       0.155000
     26 H7          -2.5150     3.0020     1.9110 ha         1 NRF       0.144000
     27 H8          -4.3120     1.6600     0.9200 ha         1 NRF       0.150000
     28 H9          -1.3750    -1.0910    -0.6040 ha         1 NRF       0.159000
     29 H10          5.2050    -0.8740    -0.3390 hn         1 NRF       0.455800
@<TRIPOS>BOND
     1     1     2 1   
     2     1     5 1   
     3     1    29 1   
     4     2    21 1   
     5     2    22 1   
     6     2    23 1   
     7     3     9 2   
     8     4     7 1   
     9     5     7 2   
    10     5    10 1   
    11     6     8 1   
    12     6     9 1   
    13     6    11 1   
    14     7     9 1   
    15     8    10 2   
    16    10    24 1   
    17    11    12 ar  
    18    11    16 ar  
    19    12    13 ar  
    20    12    25 1   
    21    13    14 ar  
    22    13    26 1   
    23    14    15 ar  
    24    14    27 1   
    25    15    16 ar  
    26    15    17 1   
    27    16    28 1   
    28    17    18 1   
    29    17    19 1   
    30    17    20 1   
@<TRIPOS>SUBSTRUCTURE
     1 NRF         1 TEMP              0 ****  ****    0 ROOT
