@<TRIPOS>MOLECULE
NRF
   29    30     1     0     0
SMALL
No Charge or Current Charge


@<TRIPOS>ATOM
      1 N            4.5390    -1.4440     0.0530 nu         1 NRF      -0.810200
      2 C            4.9230    -2.8000     0.4940 c3         1 NRF       0.212100
      3 O            1.4110     2.1330    -0.6460 o          1 NRF      -0.517000
      4 Cl           4.2970     1.4270    -1.0100 cl         1 NRF      -0.157000
      5 C1           3.2740    -0.8640     0.1120 cc         1 NRF       0.154400
      6 N1           0.7000     0.1260     0.3040 n          1 NRF      -0.063000
      7 C2           3.0400     0.4160    -0.3330 cd         1 NRF      -0.162200
      8 N2           0.8940    -1.1810     0.7740 nd         1 NRF      -0.389300
      9 C3           1.6770     1.0000    -0.2550 c          1 NRF       0.580200
     10 C4           2.1510    -1.6070     0.6550 cc         1 NRF       0.316500
     11 C5          -0.6640     0.5490     0.4830 ca         1 NRF       0.049600
     12 C6          -0.9600     1.7160     1.2150 ca         1 NRF      -0.055000
     13 C7          -2.2930     2.1180     1.3960 ca         1 NRF      -0.111000
     14 C8          -3.3420     1.3620     0.8470 ca         1 NRF      -0.058000
     15 C9          -3.0660     0.1930     0.1050 ca         1 NRF      -0.194300
     16 C10         -1.7220    -0.2090    -0.0620 ca         1 NRF      -0.050000
     17 C11         -4.2030    -0.6470    -0.4870 c3         1 NRF       0.358300
     18 F           -4.5660    -1.6430     0.3510 f          1 NRF      -0.113000
     19 F1          -5.3130     0.0860    -0.7350 f          1 NRF      -0.113000
     20 F2          -3.8540    -1.2250    -1.6600 f          1 NRF      -0.113000
     21 H1           5.9940    -2.9700     0.3190 h1         1 NRF       0.046700
     22 H2           4.7250    -2.9280     1.5660 h1         1 NRF       0.046700
     23 H3           4.3580    -3.5600    -0.0610 h1         1 NRF       0.046700
     24 H5           2.2760    -2.6170     1.0200 h4         1 NRF       0.049800
     25 H6          -0.1570     2.3050     1.6510 ha         1 NRF       0.137000
     26 H7          -2.5140     3.0180     1.9660 ha         1 NRF       0.126000
     27 H8          -4.3680     1.6890     1.0050 ha         1 NRF       0.132000
     28 H9          -1.4910    -1.1140    -0.6210 ha         1 NRF       0.141000
     29 H10          5.2750    -0.8510    -0.3430 hn         1 NRF       0.511000
@<TRIPOS>BOND
     1     1     2 1   
     2     1     5 1   
     3     1    29 1   
     4     2    21 1   
     5     2    22 1   
     6     2    23 1   
     7     3     9 2   
     8     4     7 1   
     9     5     7 2   
    10     5    10 1   
    11     6     8 1   
    12     6     9 1   
    13     6    11 1   
    14     7     9 1   
    15     8    10 2   
    16    10    24 1   
    17    11    12 ar  
    18    11    16 ar  
    19    12    13 ar  
    20    12    25 1   
    21    13    14 ar  
    22    13    26 1   
    23    14    15 ar  
    24    14    27 1   
    25    15    16 ar  
    26    15    17 1   
    27    16    28 1   
    28    17    18 1   
    29    17    19 1   
    30    17    20 1   
@<TRIPOS>SUBSTRUCTURE
     1 NRF         1 TEMP              0 ****  ****    0 ROOT
