@<TRIPOS>MOLECULE
NRG
   27    26     1     0     0
SMALL
No Charge or Current Charge


@<TRIPOS>ATOM
      1 N            8.7180    15.0770    35.6830 n8         1 NRG      -1.010200
      2 CA           8.4610    15.9710    34.4960 c3         1 NRG       0.021500
      3 CB           8.0540    15.1310    33.2500 c3         1 NRG      -0.049400
      4 CG           9.1490    14.1490    32.7520 c3         1 NRG      -0.095400
      5 CD           8.7890    13.4210    31.4390 c3         1 NRG       0.232800
      6 NE           7.6800    12.4870    31.6420 nu         1 NRG      -0.963400
      7 CZ           7.2540    11.7110    30.6760 c2         1 NRG       0.855100
      8 NH1          7.0340    10.5620    31.2300 nu         1 NRG      -0.893700
      9 NH2          6.2770    12.1760    30.0750 n2         1 NRG      -0.858100
     10 C            7.4710    17.1950    34.7390 c          1 NRG       0.718000
     11 OA1          6.2820    17.0700    34.4710 o          1 NRG      -0.727000
     12 OA2          7.9430    18.2310    35.1920 o          1 NRG      -0.727000
     13 N1           7.6790     9.4330    30.9080 no         1 NRG       0.861500
     14 O2           6.9380     8.6520    30.3230 o          1 NRG      -0.401000
     15 O3           8.8580     9.5890    30.5900 o          1 NRG      -0.401000
     16 HN1          9.4480    14.3980    35.4400 hn         1 NRG       0.383000
     17 HN2          9.1400    15.6340    36.4360 hn         1 NRG       0.383000
     18 HCA          9.4340    16.4230    34.2580 h1         1 NRG      -0.004300
     19 HCB1         7.1330    14.5770    33.4680 hc         1 NRG       0.051700
     20 HCB2         7.8170    15.8210    32.4310 hc         1 NRG       0.051700
     21 HCG1        10.0740    14.7130    32.5830 hc         1 NRG       0.037700
     22 HCG2         9.3720    13.4040    33.5260 hc         1 NRG       0.037700
     23 HCD1         8.5290    14.1600    30.6690 h1         1 NRG       0.030700
     24 HCD2         9.6710    12.8680    31.0890 h1         1 NRG       0.030700
     25 HNE          7.7530    11.9180    32.4750 hn         1 NRG       0.502000
     26 HNH1         6.0830    10.3290    31.0160 hn         1 NRG       0.529000
     27 HNH2         6.3490    13.1790    30.2710 hn         1 NRG       0.404400
@<TRIPOS>BOND
     1     1     2 1   
     2     1    16 1   
     3     1    17 1   
     4     2     3 1   
     5     2    10 1   
     6     2    18 1   
     7     3     4 1   
     8     3    19 1   
     9     3    20 1   
    10     4     5 1   
    11     4    21 1   
    12     4    22 1   
    13     5     6 1   
    14     5    23 1   
    15     5    24 1   
    16     6     7 1   
    17     6    25 1   
    18     7     8 1   
    19     7     9 2   
    20     8    13 1   
    21     8    26 1   
    22     9    27 1   
    23    10    11 1   
    24    10    12 1   
    25    13    14 1   
    26    13    15 1   
@<TRIPOS>SUBSTRUCTURE
     1 NRG         1 TEMP              0 ****  ****    0 ROOT
