@<TRIPOS>MOLECULE
NRG
   27    26     1     0     0
SMALL
bcc


@<TRIPOS>ATOM
      1 N            8.3400    15.6300    35.4670 n8         1 NRG      -0.899800
      2 CA           8.7660    15.9920    34.1220 c3         1 NRG       0.021500
      3 CB           8.4330    14.8730    33.1390 c3         1 NRG      -0.049400
      4 CG           9.1160    13.5560    33.4860 c3         1 NRG      -0.095400
      5 CD           8.8530    12.4440    32.4800 c3         1 NRG       0.232800
      6 NE           7.4480    12.0750    32.4840 nu         1 NRG      -0.908200
      7 CZ           6.7330    11.5320    31.4740 c2         1 NRG       0.855100
      8 NH1          7.5670    11.1020    30.4150 nu         1 NRG      -0.838500
      9 NH2          5.4810    11.3320    31.4070 n2         1 NRG      -0.858100
     10 C            8.1440    17.3430    33.6900 c          1 NRG       0.928600
     11 OA1          8.2020    17.6200    32.4760 o          1 NRG      -0.832300
     12 OA2          7.6700    18.0660    34.5900 o          1 NRG      -0.832300
     13 N1           7.2200    11.1110    29.1180 no         1 NRG       0.481500
     14 O2           7.9080    10.4310    28.3870 o          1 NRG      -0.211000
     15 O3           6.3020    11.8040    28.7620 o          1 NRG      -0.211000
     16 HN1          9.0560    15.0840    35.9260 hn         1 NRG       0.327800
     17 HN2          8.2320    16.4830    36.0000 hn         1 NRG       0.327800
     18 HCA          9.8590    16.1510    34.0730 h1         1 NRG      -0.004300
     19 HCB1         7.3470    14.7350    33.1160 hc         1 NRG       0.051700
     20 HCB2         8.7350    15.1780    32.1350 hc         1 NRG       0.051700
     21 HCG1        10.1990    13.7030    33.5310 hc         1 NRG       0.037700
     22 HCG2         8.8130    13.2150    34.4820 hc         1 NRG       0.037700
     23 HCD1         9.1350    12.7840    31.4830 h1         1 NRG       0.030700
     24 HCD2         9.4840    11.5810    32.7220 h1         1 NRG       0.030700
     25 HNE          6.9550    12.1830    33.3560 hn         1 NRG       0.446800
     26 HNH1         8.3830    10.5330    30.5990 hn         1 NRG       0.473800
     27 HNH2         5.0080    11.7390    32.2060 hn         1 NRG       0.404400
@<TRIPOS>BOND
     1     1     2 1   
     2     1    16 1   
     3     1    17 1   
     4     2     3 1   
     5     2    10 1   
     6     2    18 1   
     7     3     4 1   
     8     3    19 1   
     9     3    20 1   
    10     4     5 1   
    11     4    21 1   
    12     4    22 1   
    13     5     6 1   
    14     5    23 1   
    15     5    24 1   
    16     6     7 1   
    17     6    25 1   
    18     7     8 1   
    19     7     9 2   
    20     8    13 1   
    21     8    26 1   
    22     9    27 1   
    23    10    11 1   
    24    10    12 1   
    25    13    14 1   
    26    13    15 1   
@<TRIPOS>SUBSTRUCTURE
     1 NRG         1 TEMP              0 ****  ****    0 ROOT
