@<TRIPOS>MOLECULE
NRH
   21    23     1     0     0
SMALL
bcc


@<TRIPOS>ATOM
      1 C5          -1.6680     1.4880    -0.0040 ca         1 NRH      -0.186300
      2 C6          -2.9820     1.0570    -0.0100 ca         1 NRH       0.359200
      3 N1          -3.3470    -0.2310    -0.0180 nb         1 NRH      -0.648000
      4 C2          -2.4170    -1.1690    -0.0220 ca         1 NRH       0.384200
      5 C4          -0.6740     0.5150    -0.0070 cp         1 NRH      -0.055000
      6 C9           0.7640     0.5220    -0.0040 cp         1 NRH      -0.098000
      7 C10          1.7260     1.5320     0.0060 ca         1 NRH      -0.061000
      8 C11          3.0620     1.1780     0.0080 ca         1 NRH      -0.167000
      9 C3          -1.0660    -0.8360    -0.0170 ca         1 NRH      -0.129500
     10 N7           0.0510    -1.6270    -0.0200 na         1 NRH      -0.174300
     11 C8           1.1650    -0.8310    -0.0110 ca         1 NRH       0.004800
     12 C13          2.5110    -1.1920    -0.0100 ca         1 NRH      -0.164000
     13 C12          3.4440    -0.1710    -0.0000 ca         1 NRH      -0.090000
     14 H1          -1.4370     2.5460     0.0020 ha         1 NRH       0.143000
     15 H2          -3.7880     1.7810    -0.0080 h4         1 NRH       0.019100
     16 H3          -2.7430    -2.2040    -0.0290 h4         1 NRH       0.020100
     17 H4           1.4310     2.5740     0.0130 ha         1 NRH       0.136000
     18 H5           3.8230     1.9460     0.0150 ha         1 NRH       0.133000
     19 H6           0.0540    -2.6330    -0.0250 hn         1 NRH       0.306700
     20 H7           2.8160    -2.2300    -0.0170 ha         1 NRH       0.136000
     21 H8           4.4970    -0.4200     0.0010 ha         1 NRH       0.131000
@<TRIPOS>BOND
     1     1     2 ar  
     2     1     5 ar  
     3     1    14 1   
     4     2     3 ar  
     5     2    15 1   
     6     3     4 ar  
     7     4     9 ar  
     8     4    16 1   
     9     5     6 1   
    10     5     9 ar  
    11     6     7 ar  
    12     6    11 ar  
    13     7     8 ar  
    14     7    17 1   
    15     8    13 ar  
    16     8    18 1   
    17     9    10 1   
    18    10    11 1   
    19    10    19 1   
    20    11    12 ar  
    21    12    13 ar  
    22    12    20 1   
    23    13    21 1   
@<TRIPOS>SUBSTRUCTURE
     1 NRH         1 TEMP              0 ****  ****    0 ROOT
