@<TRIPOS>MOLECULE
NRH
   21    23     1     0     0
SMALL
No Charge or Current Charge


@<TRIPOS>ATOM
      1 C5          -1.6510     1.4870    -0.0040 ca         1 NRH      -0.103000
      2 C6          -3.0110     1.0950    -0.0100 ca         1 NRH       0.293900
      3 N1          -3.4260    -0.2070    -0.0190 nb         1 NRH      -0.648000
      4 C2          -2.4800    -1.1850    -0.0230 ca         1 NRH       0.318900
      5 C4          -0.6840     0.4660    -0.0080 cp         1 NRH      -0.055000
      6 C9           0.7720     0.4750    -0.0040 cp         1 NRH      -0.098000
      7 C10          1.7060     1.5280     0.0060 ca         1 NRH      -0.043000
      8 C11          3.0810     1.2000     0.0070 ca         1 NRH      -0.149000
      9 C3          -1.1150    -0.8540    -0.0170 ca         1 NRH      -0.064200
     10 N7           0.0500    -1.6430    -0.0190 na         1 NRH      -0.224600
     11 C8           1.2090    -0.8480    -0.0110 ca         1 NRH       0.004800
     12 C13          2.5610    -1.2030    -0.0090 ca         1 NRH      -0.146000
     13 C12          3.5050    -0.1530    -0.0000 ca         1 NRH      -0.072000
     14 H1          -1.3710     2.5360     0.0040 ha         1 NRH       0.125000
     15 H2          -3.7970     1.8490    -0.0070 h4         1 NRH       0.019100
     16 H3          -2.8220    -2.2190    -0.0310 h4         1 NRH       0.020100
     17 H4           1.3770     2.5650     0.0120 ha         1 NRH       0.118000
     18 H5           3.8220     1.9960     0.0150 ha         1 NRH       0.115000
     19 H6           0.0570    -2.6580    -0.0260 hn         1 NRH       0.357000
     20 H7           2.8730    -2.2440    -0.0150 ha         1 NRH       0.118000
     21 H8           4.5680    -0.3850     0.0010 ha         1 NRH       0.113000
@<TRIPOS>BOND
     1     1     2 ar  
     2     1     5 ar  
     3     1    14 1   
     4     2     3 ar  
     5     2    15 1   
     6     3     4 ar  
     7     4     9 ar  
     8     4    16 1   
     9     5     6 1   
    10     5     9 ar  
    11     6     7 ar  
    12     6    11 ar  
    13     7     8 ar  
    14     7    17 1   
    15     8    13 ar  
    16     8    18 1   
    17     9    10 1   
    18    10    11 1   
    19    10    19 1   
    20    11    12 ar  
    21    12    13 ar  
    22    12    20 1   
    23    13    21 1   
@<TRIPOS>SUBSTRUCTURE
     1 NRH         1 TEMP              0 ****  ****    0 ROOT
