@<TRIPOS>MOLECULE
NRJ
   67    71     1     0     0
SMALL
No Charge or Current Charge


@<TRIPOS>ATOM
      1 C13         45.5060   -20.2690    30.4870 ca         1 NRJ      -0.069000
      2 C17         44.3000   -22.3450    30.8960 ca         1 NRJ       0.020000
      3 C16         45.4770   -22.8950    31.4420 ca         1 NRJ      -0.187000
      4 C15         46.6660   -22.1520    31.5180 ca         1 NRJ       0.005000
      5 C19         49.0970   -22.3440    32.3090 c          1 NRJ       0.643100
      6 C22         51.1970   -23.1030    33.2070 c3         1 NRJ       0.171900
      7 C24         42.9270   -24.4690    30.5600 c          1 NRJ       0.610100
      8 C12         44.3020   -21.0050    30.4070 ca         1 NRJ      -0.111500
      9 C34         36.8780   -13.3920    27.7760 ca         1 NRJ      -0.104000
     10 C27         41.4720   -24.9500    30.6940 c3         1 NRJ      -0.148400
     11 C33         37.3950   -14.6960    27.8750 ca         1 NRJ      -0.075000
     12 Cl1         33.0680   -14.0480    26.5650 cl         1 NRJ      -0.210000
     13 N2          38.8670   -19.3430    28.2390 n          1 NRJ      -0.448800
     14 C3          39.6850   -20.5610    28.5610 c3         1 NRJ       0.089400
     15 C4          41.0980   -20.1960    28.9850 cc         1 NRJ       0.385800
     16 C5          39.6870   -21.6630    27.4530 c3         1 NRJ      -0.046200
     17 C6          40.3580   -22.9720    27.8550 c2         1 NRJ      -0.224200
     18 C7          40.0700   -23.7040    28.9450 c2         1 NRJ      -0.198200
     19 N8          41.7700   -19.0460    28.6470 na         1 NRJ      -0.302500
     20 C9          43.0530   -19.1380    29.1580 cc         1 NRJ      -0.189000
     21 C10         43.1120   -20.3690    29.7730 cd         1 NRJ       0.302500
     22 N11         41.8810   -20.9800    29.6960 nd         1 NRJ      -0.649000
     23 C14         46.6700   -20.8300    31.0360 ca         1 NRJ      -0.141000
     24 N18         47.8050   -22.7840    32.0860 ns         1 NRJ      -0.139000
     25 O20         49.8150   -23.3550    32.8890 os         1 NRJ      -0.466100
     26 O21         49.5460   -21.2380    32.0410 o          1 NRJ      -0.521000
     27 N23         43.1220   -23.1340    30.8570 ns         1 NRJ      -0.159000
     28 O25         43.8320   -25.2300    30.2300 o          1 NRJ      -0.597100
     29 C26         40.7280   -25.0180    29.3350 c3         1 NRJ      -0.029200
     30 C28         38.6740   -18.9740    26.8110 c6         1 NRJ       0.113000
     31 C29         38.2230   -17.5240    26.6350 c6         1 NRJ      -0.129400
     32 C30         37.1420   -17.2340    27.6720 c6         1 NRJ       0.237600
     33 O31         37.6900   -17.4220    28.9820 os         1 NRJ      -0.442100
     34 C32         36.5840   -15.8100    27.5700 ca         1 NRJ      -0.086300
     35 C35         35.5470   -13.1920    27.3730 ca         1 NRJ      -0.091000
     36 C36         34.7350   -14.2970    27.0700 ca         1 NRJ       0.120000
     37 C37         35.2490   -15.6010    27.1670 ca         1 NRJ      -0.091000
     38 C38         38.4480   -18.5150    29.3170 c          1 NRJ       0.715100
     39 O39         38.7400   -18.7520    30.4780 o          1 NRJ      -0.537000
     40 H47         45.5520   -19.2470    30.1220 ha         1 NRJ       0.117000
     41 H49         45.4680   -23.9130    31.8250 ha         1 NRJ       0.114000
     42 H51         51.6520   -23.9910    33.6640 h1         1 NRJ       0.051700
     43 H52         51.7690   -22.8560    32.3030 h1         1 NRJ       0.051700
     44 H53         51.2910   -22.2710    33.9170 h1         1 NRJ       0.051700
     45 H65         37.5090   -12.5380    28.0130 ha         1 NRJ       0.124000
     46 H57         40.9130   -24.2780    31.3560 hc         1 NRJ       0.058200
     47 H58         41.4900   -25.9610    31.1190 hc         1 NRJ       0.058200
     48 H64         38.4260   -14.8410    28.1920 ha         1 NRJ       0.133000
     49 H40         39.2220   -21.0240    29.4410 h1         1 NRJ       0.120700
     50 H41         40.1900   -21.2740    26.5600 hc         1 NRJ       0.049200
     51 H42         38.6510   -21.8710    27.1590 hc         1 NRJ       0.049200
     52 H43         41.1390   -23.3010    27.1660 ha         1 NRJ       0.178000
     53 H44         39.2840   -23.3830    29.6320 ha         1 NRJ       0.171000
     54 H45         41.3820   -18.2860    28.1030 hn         1 NRJ       0.346000
     55 H46         43.8040   -18.3730    29.0140 h4         1 NRJ       0.162000
     56 H48         47.5660   -20.2180    31.0730 ha         1 NRJ       0.150000
     57 H50         47.6450   -23.7360    32.3840 hn         1 NRJ       0.166000
     58 H54         42.2700   -22.6060    31.0010 hn         1 NRJ       0.156000
     59 H56         39.9490   -25.7870    29.4070 hc         1 NRJ       0.057200
     60 H55         41.4180   -25.3620    28.5530 hc         1 NRJ       0.057200
     61 H59         37.9130   -19.6400    26.3800 h1         1 NRJ       0.043200
     62 H60         39.6080   -19.1240    26.2510 h1         1 NRJ       0.043200
     63 H62         39.0750   -16.8440    26.7750 hc         1 NRJ       0.073200
     64 H61         37.8420   -17.3630    25.6180 hc         1 NRJ       0.073200
     65 H63         36.3200   -17.9540    27.5390 h1         1 NRJ       0.060700
     66 H66         35.1440   -12.1850    27.2950 ha         1 NRJ       0.132000
     67 H67         34.6080   -16.4460    26.9280 ha         1 NRJ       0.128000
@<TRIPOS>BOND
     1     1     8 ar  
     2     1    23 ar  
     3     1    40 1   
     4     2     3 ar  
     5     2     8 ar  
     6     2    27 1   
     7     3     4 ar  
     8     3    41 1   
     9     4    23 ar  
    10     4    24 1   
    11     5    24 1   
    12     5    25 1   
    13     5    26 2   
    14     6    25 1   
    15     6    42 1   
    16     6    43 1   
    17     6    44 1   
    18     7    10 1   
    19     7    27 1   
    20     7    28 2   
    21     8    21 1   
    22     9    11 ar  
    23     9    35 ar  
    24     9    45 1   
    25    10    29 1   
    26    10    46 1   
    27    10    47 1   
    28    11    34 ar  
    29    11    48 1   
    30    12    36 1   
    31    13    14 1   
    32    13    30 1   
    33    13    38 1   
    34    14    15 1   
    35    14    16 1   
    36    14    49 1   
    37    15    19 1   
    38    15    22 2   
    39    16    17 1   
    40    16    50 1   
    41    16    51 1   
    42    17    18 2   
    43    17    52 1   
    44    18    29 1   
    45    18    53 1   
    46    19    20 1   
    47    19    54 1   
    48    20    21 2   
    49    20    55 1   
    50    21    22 1   
    51    23    56 1   
    52    24    57 1   
    53    27    58 1   
    54    29    59 1   
    55    29    60 1   
    56    30    31 1   
    57    30    61 1   
    58    30    62 1   
    59    31    32 1   
    60    31    63 1   
    61    31    64 1   
    62    32    33 1   
    63    32    34 1   
    64    32    65 1   
    65    33    38 1   
    66    34    37 ar  
    67    35    36 ar  
    68    35    66 1   
    69    36    37 ar  
    70    37    67 1   
    71    38    39 2   
@<TRIPOS>SUBSTRUCTURE
     1 NRJ         1 TEMP              0 ****  ****    0 ROOT
