@<TRIPOS>MOLECULE
NRJ
   67    71     1     0     0
SMALL
abcg2


@<TRIPOS>ATOM
      1 C13         45.3640   -20.5050    29.7320 ca         1 NRJ      -0.069000
      2 C17         44.2390   -22.3890    30.6840 ca         1 NRJ       0.020000
      3 C16         45.3300   -22.5980    31.5170 ca         1 NRJ      -0.187000
      4 C15         46.4450   -21.7590    31.4730 ca         1 NRJ       0.005000
      5 C19         48.6210   -21.3240    32.5980 c          1 NRJ       0.643100
      6 C22         50.5920   -21.3090    33.9060 c3         1 NRJ       0.171900
      7 C24         42.7100   -24.1100    29.7960 c          1 NRJ       0.610100
      8 C12         44.2250   -21.3110    29.7830 ca         1 NRJ      -0.111500
      9 C34         37.8280   -13.6650    29.1100 ca         1 NRJ      -0.104000
     10 C27         41.5530   -25.0190    30.1780 c3         1 NRJ      -0.148400
     11 C33         38.0160   -15.0330    28.9630 ca         1 NRJ      -0.075000
     12 CL1         34.5930   -12.9850    26.8520 cl         1 NRJ      -0.210000
     13 N2          38.8190   -19.6160    28.2550 n          1 NRJ      -0.448800
     14 C3          39.4950   -20.9120    28.4200 c3         1 NRJ       0.089400
     15 C4          40.9910   -20.8250    28.3570 cc         1 NRJ       0.385800
     16 C5          38.9410   -21.9940    27.4710 c3         1 NRJ      -0.046200
     17 C6          39.6790   -23.2980    27.6660 c2         1 NRJ      -0.224200
     18 C7          39.7040   -23.9850    28.8040 c2         1 NRJ      -0.198200
     19 N8          41.7370   -20.6560    27.2300 na         1 NRJ      -0.302500
     20 C9          43.0620   -20.7720    27.5750 cc         1 NRJ      -0.189000
     21 C10         43.0730   -21.0250    28.9240 cd         1 NRJ       0.302500
     22 N11         41.7730   -21.0420    29.3950 nd         1 NRJ      -0.649000
     23 C14         46.4650   -20.7100    30.5520 ca         1 NRJ      -0.141000
     24 N18         47.4930   -22.0470    32.3580 ns         1 NRJ      -0.139000
     25 O20         49.3600   -21.9530    33.5350 os         1 NRJ      -0.466100
     26 O21         48.9380   -20.2750    32.0710 o          1 NRJ      -0.521000
     27 N23         43.1470   -23.2950    30.7890 ns         1 NRJ      -0.159000
     28 O25         43.2340   -24.1500    28.6870 o          1 NRJ      -0.597100
     29 C26         40.5250   -25.2120    29.0520 c3         1 NRJ      -0.029200
     30 C28         38.7070   -19.0390    26.9130 c6         1 NRJ       0.113000
     31 C29         38.5210   -17.5410    27.0000 c6         1 NRJ      -0.129400
     32 C30         37.3700   -17.2500    27.9410 c6         1 NRJ       0.237600
     33 O31         37.6390   -17.8570    29.2330 os         1 NRJ      -0.442100
     34 C32         37.1480   -15.7790    28.1670 ca         1 NRJ      -0.086300
     35 C35         36.7790   -13.0210    28.4610 ca         1 NRJ      -0.091000
     36 C36         35.9240   -13.7760    27.6720 ca         1 NRJ       0.120000
     37 C37         36.0920   -15.1450    27.5190 ca         1 NRJ      -0.091000
     38 C38         38.3150   -19.0230    29.3650 c          1 NRJ       0.715100
     39 O39         38.4330   -19.4680    30.4990 o          1 NRJ      -0.537000
     40 H47         45.3760   -19.6690    29.0440 ha         1 NRJ       0.117000
     41 H49         45.3130   -23.4370    32.2010 ha         1 NRJ       0.114000
     42 H51         51.0360   -21.9510    34.6610 h1         1 NRJ       0.051700
     43 H52         51.2520   -21.2250    33.0430 h1         1 NRJ       0.051700
     44 H53         50.3950   -20.3200    34.3180 h1         1 NRJ       0.051700
     45 H65         38.5030   -13.0890    29.7300 ha         1 NRJ       0.124000
     46 H57         41.0620   -24.6510    31.0810 hc         1 NRJ       0.058200
     47 H58         41.9950   -25.9880    30.4280 hc         1 NRJ       0.058200
     48 H64         38.8350   -15.5250    29.4720 ha         1 NRJ       0.133000
     49 H40         39.2850   -21.2220    29.4380 h1         1 NRJ       0.120700
     50 H41         39.0380   -21.6750    26.4330 hc         1 NRJ       0.049200
     51 H42         37.8730   -22.1010    27.6760 hc         1 NRJ       0.049200
     52 H43         40.2780   -23.6500    26.8310 ha         1 NRJ       0.178000
     53 H44         39.1250   -23.6250    29.6540 ha         1 NRJ       0.171000
     54 H45         41.3960   -20.5340    26.2900 hn         1 NRJ       0.346000
     55 H46         43.8510   -20.7010    26.8470 h4         1 NRJ       0.162000
     56 H48         47.3190   -20.0550    30.4910 ha         1 NRJ       0.150000
     57 H50         47.3850   -22.8790    32.9200 hn         1 NRJ       0.166000
     58 H54         42.7020   -23.3760    31.6900 hn         1 NRJ       0.156000
     59 H56         39.8730   -26.0410    29.3440 hc         1 NRJ       0.057200
     60 H55         41.0410   -25.5110    28.1380 hc         1 NRJ       0.057200
     61 H59         37.8720   -19.4970    26.3770 h1         1 NRJ       0.043200
     62 H60         39.6160   -19.2620    26.3600 h1         1 NRJ       0.043200
     63 H62         39.4280   -17.0620    27.3750 hc         1 NRJ       0.073200
     64 H61         38.3000   -17.1330    26.0140 hc         1 NRJ       0.073200
     65 H63         36.4540   -17.7030    27.5550 h1         1 NRJ       0.060700
     66 H66         36.6280   -11.9560    28.5690 ha         1 NRJ       0.132000
     67 H67         35.4060   -15.7130    26.9040 ha         1 NRJ       0.128000
@<TRIPOS>BOND
     1     1     8 ar  
     2     1    23 ar  
     3     1    40 1   
     4     2     3 ar  
     5     2     8 ar  
     6     2    27 1   
     7     3     4 ar  
     8     3    41 1   
     9     4    23 ar  
    10     4    24 1   
    11     5    24 1   
    12     5    25 1   
    13     5    26 2   
    14     6    25 1   
    15     6    42 1   
    16     6    43 1   
    17     6    44 1   
    18     7    10 1   
    19     7    27 1   
    20     7    28 2   
    21     8    21 1   
    22     9    11 ar  
    23     9    35 ar  
    24     9    45 1   
    25    10    29 1   
    26    10    46 1   
    27    10    47 1   
    28    11    34 ar  
    29    11    48 1   
    30    12    36 1   
    31    13    14 1   
    32    13    30 1   
    33    13    38 1   
    34    14    15 1   
    35    14    16 1   
    36    14    49 1   
    37    15    19 1   
    38    15    22 2   
    39    16    17 1   
    40    16    50 1   
    41    16    51 1   
    42    17    18 2   
    43    17    52 1   
    44    18    29 1   
    45    18    53 1   
    46    19    20 1   
    47    19    54 1   
    48    20    21 2   
    49    20    55 1   
    50    21    22 1   
    51    23    56 1   
    52    24    57 1   
    53    27    58 1   
    54    29    59 1   
    55    29    60 1   
    56    30    31 1   
    57    30    61 1   
    58    30    62 1   
    59    31    32 1   
    60    31    63 1   
    61    31    64 1   
    62    32    33 1   
    63    32    34 1   
    64    32    65 1   
    65    33    38 1   
    66    34    37 ar  
    67    35    36 ar  
    68    35    66 1   
    69    36    37 ar  
    70    37    67 1   
    71    38    39 2   
@<TRIPOS>SUBSTRUCTURE
     1 NRJ         1 TEMP              0 ****  ****    0 ROOT
