@<TRIPOS>MOLECULE
NRK
   50    53     1     0     0
SMALL
No Charge or Current Charge


@<TRIPOS>ATOM
      1 C01         -0.6390    -2.1780     1.5190 cx         1 NRK      -0.229700
      2 C02          0.5190    -1.7460     2.3960 cx         1 NRK      -0.067400
      3 C03          0.5630    -1.4710     0.9060 cx         1 NRK      -0.045700
      4 C04          0.4570    -0.0140     0.4340 c3         1 NRK       0.186600
      5 C05         -1.9570    -1.4490     1.6190 c          1 NRK       0.639100
      6 C06          1.4880    -2.2670     0.0240 ca         1 NRK      -0.034300
      7 C07          2.8600    -2.3640     0.3290 ca         1 NRK      -0.127000
      8 C08          3.7180    -3.0980    -0.5050 ca         1 NRK       0.171000
      9 C09          3.2190    -3.7430    -1.6470 ca         1 NRK      -0.146000
     10 C10          1.8510    -3.6500    -1.9590 ca         1 NRK      -0.084000
     11 C11          0.9900    -2.9130    -1.1260 ca         1 NRK      -0.124000
     12 O12          1.7610     0.5810     0.5600 os         1 NRK      -0.329100
     13 C13          2.0090     1.8850     0.1780 ca         1 NRK       0.029100
     14 C14          3.3190     2.4040     0.2600 ca         1 NRK       0.111300
     15 N15          3.5940     3.6750    -0.1070 nb         1 NRK      -0.167000
     16 C16          2.5590     4.4210    -0.5530 ca         1 NRK       0.107300
     17 N17          1.2750     4.0170    -0.6720 nb         1 NRK      -0.154000
     18 C18          0.9990     2.7480    -0.3060 ca         1 NRK       0.028900
     19 O19         -2.3970    -1.0390     2.6840 o          1 NRK      -0.531100
     20 N20         -2.6000    -1.3270     0.4090 ns         1 NRK      -0.325900
     21 C21         -3.7810    -0.6550     0.0770 ca         1 NRK       0.473900
     22 C22         -4.6050    -1.1200    -0.9640 ca         1 NRK      -0.191000
     23 C23         -5.7480    -0.3780    -1.3180 ca         1 NRK      -0.084000
     24 C24         -6.0000     0.8130    -0.6200 ca         1 NRK       0.084000
     25 C25         -5.1020     1.2180     0.3910 ca         1 NRK       0.343900
     26 N26         -3.9990     0.5040     0.7320 nb         1 NRK      -0.659000
     27 C27          2.8720     5.8470    -0.9720 c3         1 NRK      -0.126400
     28 C28          4.4860     1.5630     0.7590 c3         1 NRK      -0.141400
     29 F29         -7.0830     1.5650    -0.9250 f          1 NRK      -0.167000
     30 F30          5.0330    -3.1820    -0.2070 f          1 NRK      -0.177000
     31 H011        -0.7300    -3.2450     1.3360 hc         1 NRK       0.091700
     32 H021         0.3750    -0.9000     3.0650 hc         1 NRK       0.093700
     33 H022         1.1700    -2.5230     2.7910 hc         1 NRK       0.093700
     34 H041         0.1190     0.0070    -0.6100 h1         1 NRK       0.058700
     35 H042        -0.2700     0.5360     1.0450 h1         1 NRK       0.058700
     36 H071         3.2630    -1.8640     1.2050 ha         1 NRK       0.139000
     37 H091         3.8900    -4.3090    -2.2870 ha         1 NRK       0.134000
     38 H101         1.4590    -4.1470    -2.8440 ha         1 NRK       0.119000
     39 H111        -0.0660    -2.8430    -1.3760 ha         1 NRK       0.114000
     40 H181        -0.0390     2.4370    -0.4050 h4         1 NRK       0.029100
     41 H201        -2.1480    -1.7870    -0.3690 hn         1 NRK       0.154000
     42 H221        -4.3620    -2.0420    -1.4830 ha         1 NRK       0.125000
     43 H231        -6.4140    -0.7120    -2.1110 ha         1 NRK       0.139000
     44 H251        -5.2700     2.1450     0.9380 h4         1 NRK       0.043100
     45 H271         3.1400     5.8900    -2.0340 hc         1 NRK       0.056367
     46 H273         2.0120     6.5100    -0.8170 hc         1 NRK       0.056367
     47 H272         3.7110     6.2600    -0.3990 hc         1 NRK       0.056367
     48 H282         4.6120     0.6670     0.1400 hc         1 NRK       0.057033
     49 H281         5.4320     2.1180     0.7370 hc         1 NRK       0.057033
     50 H283         4.3160     1.2350     1.7910 hc         1 NRK       0.057033
@<TRIPOS>BOND
     1     1     2 1   
     2     1     3 1   
     3     1     5 1   
     4     1    31 1   
     5     2     3 1   
     6     2    32 1   
     7     2    33 1   
     8     3     4 1   
     9     3     6 1   
    10     4    12 1   
    11     4    34 1   
    12     4    35 1   
    13     5    19 2   
    14     5    20 1   
    15     6     7 ar  
    16     6    11 ar  
    17     7     8 ar  
    18     7    36 1   
    19     8     9 ar  
    20     8    30 1   
    21     9    10 ar  
    22     9    37 1   
    23    10    11 ar  
    24    10    38 1   
    25    11    39 1   
    26    12    13 1   
    27    13    14 ar  
    28    13    18 ar  
    29    14    15 ar  
    30    14    28 1   
    31    15    16 ar  
    32    16    17 ar  
    33    16    27 1   
    34    17    18 ar  
    35    18    40 1   
    36    20    21 1   
    37    20    41 1   
    38    21    22 ar  
    39    21    26 ar  
    40    22    23 ar  
    41    22    42 1   
    42    23    24 ar  
    43    23    43 1   
    44    24    25 ar  
    45    24    29 1   
    46    25    26 ar  
    47    25    44 1   
    48    27    45 1   
    49    27    46 1   
    50    27    47 1   
    51    28    48 1   
    52    28    49 1   
    53    28    50 1   
@<TRIPOS>SUBSTRUCTURE
     1 NRK         1 TEMP              0 ****  ****    0 ROOT
