@<TRIPOS>MOLECULE
NRK
   50    53     1     0     0
SMALL
bcc


@<TRIPOS>ATOM
      1 C01         -0.7440    -1.6650     1.1390 cx         1 NRK      -0.229700
      2 C02          0.3430    -1.3990     2.1340 cx         1 NRK      -0.067400
      3 C03          0.5810    -1.0680     0.7020 cx         1 NRK      -0.045700
      4 C04          0.6570     0.3840     0.3070 c3         1 NRK       0.163400
      5 C05         -2.0050    -0.8630     1.1480 c          1 NRK       0.706100
      6 C06          1.4600    -1.9500    -0.1280 ca         1 NRK      -0.034300
      7 C07          2.7280    -2.3010     0.3210 ca         1 NRK      -0.145000
      8 C08          3.5290    -3.0850    -0.4870 ca         1 NRK       0.135900
      9 C09          3.1230    -3.5310    -1.7290 ca         1 NRK      -0.164000
     10 C10          1.8560    -3.1710    -2.1700 ca         1 NRK      -0.102000
     11 C11          1.0300    -2.3870    -1.3780 ca         1 NRK      -0.142000
     12 O12          1.9950     0.7850     0.5500 os         1 NRK      -0.305900
     13 C13          2.3620     2.0340     0.2300 ca         1 NRK      -0.101500
     14 C14          3.7100     2.3740     0.4210 ca         1 NRK       0.439600
     15 N15          4.1370     3.5910     0.1340 nb         1 NRK      -0.693000
     16 C16          3.2690     4.4850    -0.3420 ca         1 NRK       0.633300
     17 N17          1.9880     4.2430    -0.5520 nb         1 NRK      -0.680000
     18 C18          1.5340     3.0230    -0.2690 ca         1 NRK       0.357200
     19 O19         -2.1370     0.1720     1.7700 o          1 NRK      -0.531100
     20 N20         -2.9780    -1.4290     0.3750 ns         1 NRK      -0.559400
     21 C21         -4.2700    -0.9840     0.1110 ca         1 NRK       0.539200
     22 C22         -5.1270    -1.8580    -0.5690 ca         1 NRK      -0.274300
     23 C23         -6.4050    -1.4370    -0.8640 ca         1 NRK      -0.102000
     24 C24         -6.7730    -0.1650    -0.4630 ca         1 NRK      -0.016400
     25 C25         -5.8720     0.6340     0.2060 ca         1 NRK       0.409200
     26 N26         -4.6380     0.2280     0.4820 nb         1 NRK      -0.659000
     27 C27          3.8000     5.8420    -0.6840 c3         1 NRK      -0.126400
     28 C28          4.6840     1.3710     0.9490 c3         1 NRK      -0.141400
     29 F29         -8.0040     0.2930    -0.7270 f          1 NRK      -0.131900
     30 F30          4.7510    -3.4260    -0.0450 f          1 NRK      -0.141900
     31 H011        -0.8660    -2.7010     0.8440 hc         1 NRK       0.091700
     32 H021         0.2020    -0.5730     2.8200 hc         1 NRK       0.093700
     33 H022         0.8390    -2.2610     2.5610 hc         1 NRK       0.093700
     34 H041         0.4080     0.5040    -0.7530 h1         1 NRK       0.058700
     35 H042        -0.0360     0.9930     0.8920 h1         1 NRK       0.058700
     36 H071         3.0870    -1.9730     1.2880 ha         1 NRK       0.157000
     37 H091         3.7740    -4.1470    -2.3340 ha         1 NRK       0.152000
     38 H101         1.5140    -3.5110    -3.1380 ha         1 NRK       0.137000
     39 H111         0.0400    -2.1210    -1.7290 ha         1 NRK       0.132000
     40 H181         0.4780     2.8530    -0.4470 h4         1 NRK       0.029100
     41 H201        -2.7460    -2.3140    -0.0480 hn         1 NRK       0.320500
     42 H221        -4.7970    -2.8460    -0.8600 ha         1 NRK       0.143000
     43 H231        -7.0970    -2.0810    -1.3910 ha         1 NRK       0.157000
     44 H251        -6.1490     1.6330     0.5240 h4         1 NRK       0.043100
     45 H271         4.2670     5.8290    -1.6710 hc         1 NRK       0.056367
     46 H273         3.0020     6.5800    -0.7040 hc         1 NRK       0.056367
     47 H272         4.5600     6.1570     0.0290 hc         1 NRK       0.056367
     48 H282         4.7500     0.5060     0.2870 hc         1 NRK       0.057033
     49 H281         5.6710     1.8180     1.0400 hc         1 NRK       0.057033
     50 H283         4.3760     0.9970     1.9260 hc         1 NRK       0.057033
@<TRIPOS>BOND
     1     1     2 1   
     2     1     3 1   
     3     1     5 1   
     4     1    31 1   
     5     2     3 1   
     6     2    32 1   
     7     2    33 1   
     8     3     4 1   
     9     3     6 1   
    10     4    12 1   
    11     4    34 1   
    12     4    35 1   
    13     5    19 2   
    14     5    20 1   
    15     6     7 ar  
    16     6    11 ar  
    17     7     8 ar  
    18     7    36 1   
    19     8     9 ar  
    20     8    30 1   
    21     9    10 ar  
    22     9    37 1   
    23    10    11 ar  
    24    10    38 1   
    25    11    39 1   
    26    12    13 1   
    27    13    14 ar  
    28    13    18 ar  
    29    14    15 ar  
    30    14    28 1   
    31    15    16 ar  
    32    16    17 ar  
    33    16    27 1   
    34    17    18 ar  
    35    18    40 1   
    36    20    21 1   
    37    20    41 1   
    38    21    22 ar  
    39    21    26 ar  
    40    22    23 ar  
    41    22    42 1   
    42    23    24 ar  
    43    23    43 1   
    44    24    25 ar  
    45    24    29 1   
    46    25    26 ar  
    47    25    44 1   
    48    27    45 1   
    49    27    46 1   
    50    27    47 1   
    51    28    48 1   
    52    28    49 1   
    53    28    50 1   
@<TRIPOS>SUBSTRUCTURE
     1 NRK         1 TEMP              0 ****  ****    0 ROOT
