@<TRIPOS>MOLECULE
NRL
   38    39     1     0     0
SMALL
No Charge or Current Charge


@<TRIPOS>ATOM
      1 C10         30.6090    13.1620    15.5960 c5         1 NRL       0.146600
      2 C14         27.0980    16.1990    19.9500 c          1 NRL       0.713400
      3 C17         28.4250    17.8920    21.6890 cc         1 NRL      -0.504600
      4 C18         29.1680    17.1830    20.7770 cd         1 NRL       0.037600
      5 O21         26.4820    15.4590    19.2000 o          1 NRL      -0.509000
      6 C03         29.8290    16.0460    15.0180 c3         1 NRL      -0.062000
      7 C05         30.7560    14.2340    16.7110 c5         1 NRL       0.061700
      8 C06         32.2600    14.5910    16.5060 c5         1 NRL       0.096500
      9 C08         32.8550    13.1530    16.2890 c5         1 NRL       0.162600
     10 C12         29.2710    15.5500    18.8850 c3         1 NRL       0.001000
     11 C16         27.0320    17.7180    21.6850 cc         1 NRL       0.781500
     12 N04         29.9170    15.4490    16.3970 n          1 NRL      -0.358800
     13 N07         32.8750    15.3660    17.6160 n8         1 NRL      -0.996200
     14 N13         28.5080    16.3270    19.9020 n          1 NRL      -0.287000
     15 N15         26.3830    16.9390    20.8950 nd         1 NRL      -0.768100
     16 O01         27.9970    16.8010    13.6870 o          1 NRL      -0.717500
     17 O09         31.7600    12.3180    15.8230 os         1 NRL      -0.478000
     18 H101        30.6690    13.5660    14.5780 h1         1 NRL       0.081700
     19 H102        29.6830    12.5780    15.6870 h1         1 NRL       0.081700
     20 H171        28.8840    18.5760    22.3940 ha         1 NRL       0.190000
     21 H181        30.2500    17.2250    20.6640 h4         1 NRL       0.189000
     22 H032        30.6120    15.6370    14.3710 h1         1 NRL       0.036200
     23 H031        30.0250    17.1240    15.0880 h1         1 NRL       0.036200
     24 H051        30.5660    13.7820    17.6910 h1         1 NRL       0.036700
     25 H061        32.4050    15.1720    15.5830 h1         1 NRL       0.085700
     26 H082        33.2400    12.7230    17.2230 h1         1 NRL       0.035700
     27 H081        33.6640    13.1520    15.5470 h1         1 NRL       0.035700
     28 H122        28.8590    14.5340    18.8320 h1         1 NRL       0.067200
     29 H121        30.3160    15.4660    19.2030 h1         1 NRL       0.067200
     30 H071        32.4050    16.2750    17.7000 hn         1 NRL       0.394000
     31 H2          32.6850    14.9020    18.5120 hn         1 NRL       0.394000
     32 H192        25.3780    18.0010    22.6710 hn         1 NRL       0.492500
     33 H191        26.7820    18.6450    23.4110 hn         1 NRL       0.492500
     34 O02         27.9400    14.7480    14.3380 o          1 NRL      -0.717500
     35 C11         29.2540    16.1450    17.4520 c          1 NRL       0.595100
     36 O22         28.6640    17.1980    17.2290 o          1 NRL      -0.580100
     37 N19         26.3070    18.3830    22.5580 nv         1 NRL      -1.050200
     38 C02         28.4710    15.8490    14.2930 c          1 NRL       0.716000
@<TRIPOS>BOND
     1     1     7 1   
     2     1    17 1   
     3     1    18 1   
     4     1    19 1   
     5     2     5 2   
     6     2    14 1   
     7     2    15 1   
     8     3     4 2   
     9     3    11 1   
    10     3    20 1   
    11     4    14 1   
    12     4    21 1   
    13     6    12 1   
    14     6    22 1   
    15     6    23 1   
    16     6    38 1   
    17     7     8 1   
    18     7    12 1   
    19     7    24 1   
    20     8     9 1   
    21     8    13 1   
    22     8    25 1   
    23     9    17 1   
    24     9    26 1   
    25     9    27 1   
    26    10    14 1   
    27    10    28 1   
    28    10    29 1   
    29    10    35 1   
    30    11    15 2   
    31    11    37 1   
    32    12    35 1   
    33    13    30 1   
    34    13    31 1   
    35    16    38 1   
    36    32    37 1   
    37    33    37 1   
    38    34    38 1   
    39    35    36 2   
@<TRIPOS>SUBSTRUCTURE
     1 NRL         1 TEMP              0 ****  ****    0 ROOT
