@<TRIPOS>MOLECULE
NRL
   38    39     1     0     0
SMALL
bcc


@<TRIPOS>ATOM
      1 C10         30.4510    13.2790    15.6560 c5         1 NRL       0.123400
      2 C14         27.2140    15.9410    19.9220 c          1 NRL       0.855900
      3 C17         28.4160    17.8640    21.5230 cc         1 NRL      -0.454600
      4 C18         29.1550    17.1260    20.6710 cd         1 NRL       0.087600
      5 O21         26.7420    15.1010    19.1680 o          1 NRL      -0.584500
      6 C03         29.8150    16.2210    15.2420 c3         1 NRL      -0.062000
      7 C05         30.7670    14.3940    16.6520 c5         1 NRL       0.061700
      8 C06         32.2750    14.5900    16.4440 c5         1 NRL       0.096500
      9 C08         32.7090    13.1440    16.2390 c5         1 NRL       0.139400
     10 C12         29.3980    15.4560    18.9360 c3         1 NRL       0.001000
     11 C16         27.0160    17.5790    21.5550 cc         1 NRL       0.781500
     12 N04         29.9730    15.5960    16.5410 n          1 NRL      -0.425800
     13 N07         33.0140    15.2510    17.4920 n8         1 NRL      -0.885800
     14 N13         28.6000    16.1600    19.9080 n          1 NRL      -0.354000
     15 N15         26.4670    16.6610    20.7840 nd         1 NRL      -0.768100
     16 O01         28.2620    16.5500    13.5030 o          1 NRL      -0.822800
     17 O09         31.6220    12.4760    15.6180 os         1 NRL      -0.431600
     18 H101        30.2320    13.6710    14.6590 h1         1 NRL       0.081700
     19 H102        29.5990    12.6750    15.9710 h1         1 NRL       0.081700
     20 H171        28.8650    18.6240    22.1450 ha         1 NRL       0.140000
     21 H181        30.2240    17.2630    20.5740 h4         1 NRL       0.139000
     22 H032        30.6400    15.9080    14.5990 h1         1 NRL       0.036200
     23 H031        29.9130    17.3030    15.3390 h1         1 NRL       0.036200
     24 H051        30.6390    13.9820    17.6540 h1         1 NRL       0.036700
     25 H061        32.4390    15.1490    15.5170 h1         1 NRL       0.085700
     26 H082        32.9370    12.6830    17.2100 h1         1 NRL       0.035700
     27 H081        33.6000    13.0600    15.6130 h1         1 NRL       0.035700
     28 H122        29.0640    14.4220    18.8820 h1         1 NRL       0.067200
     29 H121        30.4320    15.4440    19.2830 h1         1 NRL       0.067200
     30 H071        32.7180    16.2160    17.5680 hn         1 NRL       0.338800
     31 H2          32.8150    14.8190    18.3870 hn         1 NRL       0.338800
     32 H192        25.2410    18.0610    22.4220 hn         1 NRL       0.437300
     33 H191        26.5910    18.9630    23.0050 hn         1 NRL       0.437300
     34 O02         27.7830    14.9790    15.0210 o          1 NRL      -0.822800
     35 C11         29.3000    16.1430    17.5700 c          1 NRL       0.662100
     36 O22         28.6480    17.1690    17.4600 o          1 NRL      -0.580100
     37 N19         26.2260    18.2610    22.3860 nv         1 NRL      -0.939800
     38 C02         28.4820    15.8820    14.5310 c          1 NRL       0.926600
@<TRIPOS>BOND
     1     1     7 1   
     2     1    17 1   
     3     1    18 1   
     4     1    19 1   
     5     2     5 2   
     6     2    14 1   
     7     2    15 1   
     8     3     4 2   
     9     3    11 1   
    10     3    20 1   
    11     4    14 1   
    12     4    21 1   
    13     6    12 1   
    14     6    22 1   
    15     6    23 1   
    16     6    38 1   
    17     7     8 1   
    18     7    12 1   
    19     7    24 1   
    20     8     9 1   
    21     8    13 1   
    22     8    25 1   
    23     9    17 1   
    24     9    26 1   
    25     9    27 1   
    26    10    14 1   
    27    10    28 1   
    28    10    29 1   
    29    10    35 1   
    30    11    15 2   
    31    11    37 1   
    32    12    35 1   
    33    13    30 1   
    34    13    31 1   
    35    16    38 1   
    36    32    37 1   
    37    33    37 1   
    38    34    38 1   
    39    35    36 2   
@<TRIPOS>SUBSTRUCTURE
     1 NRL         1 TEMP              0 ****  ****    0 ROOT
