@<TRIPOS>MOLECULE
NRM
   32    35     1     0     0
SMALL
abcg2


@<TRIPOS>ATOM
      1 C1          -4.1450     0.2130     0.0690 cc         1 NRM      -0.158800
      2 S1           3.5560    -1.2180    -0.1990 ss         1 NRM       0.378100
      3 C2          -1.5340    -1.4790    -0.1690 cc         1 NRM      -0.203000
      4 N2          -0.9140     1.9630     0.2050 nd         1 NRM      -0.273600
      5 C3          -0.2770    -1.9680    -0.2450 cd         1 NRM       0.347900
      6 N3          -1.6760    -0.1210     0.0030 na         1 NRM       0.168100
      7 N4          -6.2820     0.0740    -0.3180 na         1 NRM       0.002800
      8 C5           0.7010     0.0850    -0.0150 cc         1 NRM       0.660900
      9 N5          -6.0220    -0.9780     0.4480 nd         1 NRM      -0.513800
     10 C6          -0.5790     0.6990     0.0700 cc         1 NRM      -0.168000
     11 N6           5.1810    -0.8700    -0.1860 nc         1 NRM      -0.554100
     12 C7          -2.7780     0.6850     0.1060 cc         1 NRM      -0.055300
     13 N7           0.8430    -1.1990    -0.1620 nd         1 NRM      -0.756000
     14 C8          -4.7300    -0.9100     0.6960 cc         1 NRM       0.251900
     15 C9          -2.2640     1.9610     0.2300 cd         1 NRM      -0.041400
     16 C10         -5.2020     0.8190    -0.5810 cd         1 NRM      -0.142000
     17 C11          3.0880     0.4350    -0.0090 cc         1 NRM       0.160000
     18 C12          4.2120     1.2130     0.0590 cd         1 NRM      -0.270000
     19 C14          5.3800     0.4140    -0.0470 cd         1 NRM       0.339300
     20 HN1          1.6530     1.8750     0.1660 hn         1 NRM       0.532000
     21 H2          -2.4220    -2.0850    -0.2440 h4         1 NRM       0.160000
     22 H3          -0.1250    -3.0300    -0.3790 h4         1 NRM       0.038100
     23 H8          -4.2560    -1.6490     1.3240 h4         1 NRM       0.042100
     24 H9          -2.8340     2.8700     0.3470 h4         1 NRM       0.230000
     25 H10         -5.2460     1.7020    -1.1980 h4         1 NRM       0.163000
     26 H12          4.2070     2.2880     0.1750 ha         1 NRM       0.144000
     27 H13          6.9040     1.7380    -0.7610 hc         1 NRM       0.051700
     28 H13A         6.9610     1.4360     0.9670 hc         1 NRM       0.051700
     29 H13B         7.5040     0.1870    -0.1590 hc         1 NRM       0.051700
     30 HN4         -7.2210     0.2350    -0.6480 hn         1 NRM       0.377000
     31 N1           1.7990     0.8810     0.0600 nu         1 NRM      -0.885900
     32 C13          6.7650     0.9700     0.0010 c3         1 NRM      -0.126400
@<TRIPOS>BOND
     1     1    12 1   
     2     1    14 1   
     3     1    16 2   
     4     2    11 1   
     5     2    17 1   
     6     3     5 2   
     7     3     6 1   
     8     3    21 1   
     9     4    10 2   
    10     4    15 1   
    11     5    13 1   
    12     5    22 1   
    13     6    10 1   
    14     6    12 1   
    15     7     9 1   
    16     7    16 1   
    17     7    30 1   
    18     8    10 1   
    19     8    13 2   
    20     8    31 1   
    21     9    14 2   
    22    11    19 2   
    23    12    15 2   
    24    14    23 1   
    25    15    24 1   
    26    16    25 1   
    27    17    18 2   
    28    17    31 1   
    29    18    19 1   
    30    18    26 1   
    31    19    32 1   
    32    20    31 1   
    33    27    32 1   
    34    28    32 1   
    35    29    32 1   
@<TRIPOS>SUBSTRUCTURE
     1 NRM         1 TEMP              0 ****  ****    0 ROOT
