@<TRIPOS>MOLECULE
NRM
   32    35     1     0     0
SMALL
No Charge or Current Charge


@<TRIPOS>ATOM
      1 C1          -4.0870     0.2550     0.1800 cc         1 NRM      -0.158800
      2 S1           4.0450    -1.1930    -1.0510 ss         1 NRM       0.378100
      3 C2          -1.5710    -1.6060    -0.1420 cc         1 NRM      -0.203000
      4 N2          -0.8420     1.7510    -0.6710 nd         1 NRM      -0.273600
      5 C3          -0.3060    -2.2060    -0.1780 cd         1 NRM       0.347900
      6 N3          -1.5790    -0.2180    -0.0330 na         1 NRM       0.168100
      7 N4          -6.2530     0.4360     0.4370 na         1 NRM       0.002800
      8 C5           0.7300    -0.2010    -0.4980 cc         1 NRM       0.660900
      9 N5          -5.9500    -0.8420     0.9100 nd         1 NRM      -0.513800
     10 C6          -0.5030     0.4890    -0.4300 cc         1 NRM      -0.168000
     11 N6           5.5200    -0.6430    -0.4360 nc         1 NRM      -0.554100
     12 C7          -2.7090     0.5610    -0.1270 cc         1 NRM      -0.055300
     13 N7           0.8970    -1.4900    -0.3170 nd         1 NRM      -0.756000
     14 C8          -4.6440    -0.9100     0.7430 cc         1 NRM       0.251900
     15 C9          -2.2230     1.7970    -0.5070 cd         1 NRM      -0.041400
     16 C10         -5.1170     1.1290    -0.0040 cd         1 NRM      -0.142000
     17 C11          3.1740     0.2960    -0.6270 cc         1 NRM       0.160000
     18 C12          4.0500     1.1260    -0.0030 cd         1 NRM      -0.270000
     19 C14          5.3510     0.5650     0.0730 cd         1 NRM       0.339300
     20 HN1          1.5720     1.5380    -0.7670 hn         1 NRM       0.532000
     21 H2          -2.4980    -2.1510    -0.1280 h4         1 NRM       0.160000
     22 H3          -0.2020    -3.2830    -0.1460 h4         1 NRM       0.038100
     23 H8          -4.1400    -1.8070     1.0710 h4         1 NRM       0.042100
     24 H9          -2.7820     2.7160    -0.6590 h4         1 NRM       0.230000
     25 H10         -5.1490     2.1390    -0.3980 h4         1 NRM       0.163000
     26 H12          3.7910     2.1010     0.3940 ha         1 NRM       0.144000
     27 H13          7.3470     1.3650    -0.0260 hc         1 NRM       0.051700
     28 H13A         6.2640     2.2500     1.0600 hc         1 NRM       0.051700
     29 H13B         6.9130     0.6760     1.5500 hc         1 NRM       0.051700
     30 HN4         -7.2090     0.7910     0.4370 hn         1 NRM       0.377000
     31 N1           1.8240     0.5530    -0.7950 nu         1 NRM      -0.885900
     32 C13          6.5320     1.2510     0.6980 c3         1 NRM      -0.126400
@<TRIPOS>BOND
     1     1    12 1   
     2     1    14 1   
     3     1    16 2   
     4     2    11 1   
     5     2    17 1   
     6     3     5 2   
     7     3     6 1   
     8     3    21 1   
     9     4    10 2   
    10     4    15 1   
    11     5    13 1   
    12     5    22 1   
    13     6    10 1   
    14     6    12 1   
    15     7     9 1   
    16     7    16 1   
    17     7    30 1   
    18     8    10 1   
    19     8    13 2   
    20     8    31 1   
    21     9    14 2   
    22    11    19 2   
    23    12    15 2   
    24    14    23 1   
    25    15    24 1   
    26    16    25 1   
    27    17    18 2   
    28    17    31 1   
    29    18    19 1   
    30    18    26 1   
    31    19    32 1   
    32    20    31 1   
    33    27    32 1   
    34    28    32 1   
    35    29    32 1   
@<TRIPOS>SUBSTRUCTURE
     1 NRM         1 TEMP              0 ****  ****    0 ROOT
