@<TRIPOS>MOLECULE
NRN
   31    33     1     0     0
SMALL
bcc


@<TRIPOS>ATOM
      1 N6          -4.7260     1.0700    -0.7140 nv         1 NRN      -0.955500
      2 C6          -3.7520     0.3030    -0.2220 ca         1 NRN       0.781200
      3 N1          -4.0670    -0.8460     0.3860 nb         1 NRN      -0.830000
      4 C5          -2.3910     0.6470    -0.3180 ca         1 NRN      -0.234200
      5 N7          -1.7360     1.7210    -0.8590 nc         1 NRN      -0.548100
      6 C8          -0.4780     1.4740    -0.6350 cd         1 NRN       0.394700
      7 N9          -0.2600     0.2980     0.0260 na         1 NRN      -0.244000
      8 C4          -1.4900    -0.2510     0.2350 ca         1 NRN       0.459800
      9 N3          -1.7890    -1.3980     0.8430 nb         1 NRN      -0.743000
     10 C2          -3.0920    -1.6110     0.8720 ca         1 NRN       0.710900
     11 C1A          1.0140    -0.2830     0.3950 c5         1 NRN       0.045000
     12 C2A          1.9090    -0.6450    -0.8160 c5         1 NRN       0.142100
     13 O2A          2.1370    -2.0310    -0.7790 oh         1 NRN      -0.584800
     14 C5A          1.8530     0.6230     1.3080 c5         1 NRN      -0.086400
     15 C4A          3.2840     0.2620     0.9440 c5         1 NRN       0.117100
     16 O5A          4.1810     1.2330     1.4160 oh         1 NRN      -0.589800
     17 C3A          3.1930     0.1590    -0.5780 c5         1 NRN       0.065100
     18 O3A          4.2870    -0.4540    -1.2080 oh         1 NRN      -0.597800
     19 H1          -5.6890     0.7990    -0.6080 hn         1 NRN       0.452300
     20 H2          -4.5230     1.9450    -1.1640 hn         1 NRN       0.452300
     21 H3           0.3400     2.1170    -0.9280 h5         1 NRN       0.063800
     22 H4          -3.4170    -2.5280     1.3520 h5         1 NRN       0.047100
     23 H5           0.7720    -1.2100     0.9160 h1         1 NRN       0.121700
     24 H6           1.4350    -0.3520    -1.7610 h1         1 NRN       0.055700
     25 H7           2.8220    -2.2390    -1.4230 ho         1 NRN       0.427000
     26 H8           1.6800     1.6780     1.0770 hc         1 NRN       0.071200
     27 H9           1.6150     0.4720     2.3600 hc         1 NRN       0.071200
     28 H10          3.5260    -0.7310     1.3500 h1         1 NRN       0.061700
     29 H11          5.0780     0.9050     1.2970 ho         1 NRN       0.411000
     30 H12          3.0290     1.1760    -0.9640 h1         1 NRN       0.045700
     31 H13          4.9400     0.2150    -1.4300 ho         1 NRN       0.417000
@<TRIPOS>BOND
     1     1     2 1   
     2     1    19 1   
     3     1    20 1   
     4     2     3 ar  
     5     2     4 ar  
     6     3    10 ar  
     7     4     5 1   
     8     4     8 ar  
     9     5     6 2   
    10     6     7 1   
    11     6    21 1   
    12     7     8 1   
    13     7    11 1   
    14     8     9 ar  
    15     9    10 ar  
    16    10    22 1   
    17    11    12 1   
    18    11    14 1   
    19    11    23 1   
    20    12    13 1   
    21    12    17 1   
    22    12    24 1   
    23    13    25 1   
    24    14    15 1   
    25    14    26 1   
    26    14    27 1   
    27    15    16 1   
    28    15    17 1   
    29    15    28 1   
    30    16    29 1   
    31    17    18 1   
    32    17    30 1   
    33    18    31 1   
@<TRIPOS>SUBSTRUCTURE
     1 NRN         1 TEMP              0 ****  ****    0 ROOT
