@<TRIPOS>MOLECULE
NRN
   31    33     1     0     0
SMALL
No Charge or Current Charge


@<TRIPOS>ATOM
      1 N6          -4.8450     1.0120    -0.6970 nv         1 NRN      -1.065900
      2 C6          -3.8430     0.2530    -0.1790 ca         1 NRN       0.452900
      3 N1          -4.2240    -0.8180     0.5330 nb         1 NRN      -0.304000
      4 C5          -2.4790     0.5660    -0.3630 ca         1 NRN      -0.103600
      5 N7          -1.9030     1.6280    -1.0520 nc         1 NRN      -0.548100
      6 C8          -0.5900     1.3950    -0.8730 cd         1 NRN       0.394700
      7 N9          -0.3080     0.2440    -0.1090 na         1 NRN      -0.273300
      8 C4          -1.5440    -0.2630     0.2040 ca         1 NRN       0.131500
      9 N3          -1.8950    -1.3490     0.9230 nb         1 NRN      -0.217000
     10 C2          -3.2250    -1.5710     1.0510 ca         1 NRN       0.184900
     11 C1A          1.0140    -0.2780     0.2610 c5         1 NRN       0.074300
     12 C2A          1.9910    -0.5480    -0.9480 c5         1 NRN       0.165300
     13 O2A          2.2860    -1.9370    -1.0950 oh         1 NRN      -0.707000
     14 C5A          1.8240     0.6600     1.2090 c5         1 NRN      -0.086400
     15 C4A          3.2650     0.1500     0.9910 c5         1 NRN       0.140300
     16 O5A          4.2400     0.9960     1.6070 oh         1 NRN      -0.712000
     17 C3A          3.3030     0.2100    -0.5650 c5         1 NRN       0.088300
     18 O3A          4.4670    -0.4140    -1.1380 oh         1 NRN      -0.660000
     19 H1          -5.7720     0.9170    -0.2910 hn         1 NRN       0.507500
     20 H2          -4.5910     1.9350    -1.0430 hn         1 NRN       0.507500
     21 H3           0.2120     2.0110    -1.2620 h5         1 NRN       0.063800
     22 H4          -3.5200    -2.4440     1.6300 h5         1 NRN       0.047100
     23 H5           0.8620    -1.2340     0.7830 h1         1 NRN       0.121700
     24 H6           1.5870    -0.1470    -1.8880 h1         1 NRN       0.055700
     25 H7           3.2640    -1.9260    -1.2630 ho         1 NRN       0.526000
     26 H8           1.7230     1.7160     0.9320 hc         1 NRN       0.071200
     27 H9           1.5000     0.5670     2.2520 hc         1 NRN       0.071200
     28 H10          3.3700    -0.8850     1.3520 h1         1 NRN       0.061700
     29 H11          5.1120     0.5470     1.5050 ho         1 NRN       0.510000
     30 H12          3.2350     1.2530    -0.9060 h1         1 NRN       0.045700
     31 H13          5.1700     0.2740    -1.1900 ho         1 NRN       0.456000
@<TRIPOS>BOND
     1     1     2 1   
     2     1    19 1   
     3     1    20 1   
     4     2     3 ar  
     5     2     4 ar  
     6     3    10 ar  
     7     4     5 1   
     8     4     8 ar  
     9     5     6 2   
    10     6     7 1   
    11     6    21 1   
    12     7     8 1   
    13     7    11 1   
    14     8     9 ar  
    15     9    10 ar  
    16    10    22 1   
    17    11    12 1   
    18    11    14 1   
    19    11    23 1   
    20    12    13 1   
    21    12    17 1   
    22    12    24 1   
    23    13    25 1   
    24    14    15 1   
    25    14    26 1   
    26    14    27 1   
    27    15    16 1   
    28    15    17 1   
    29    15    28 1   
    30    16    29 1   
    31    17    18 1   
    32    17    30 1   
    33    18    31 1   
@<TRIPOS>SUBSTRUCTURE
     1 NRN         1 TEMP              0 ****  ****    0 ROOT
