@<TRIPOS>MOLECULE
NRP
   42    43     1     0     0
SMALL
No Charge or Current Charge


@<TRIPOS>ATOM
      1 C           -2.0260    -3.3080    -1.0820 c          1 NRP       0.720000
      2 N           -3.9660    -1.0910     0.1580 n2         1 NRP      -0.674100
      3 O           -1.8640    -2.7360    -2.1530 o          1 NRP      -0.722500
      4 C1          -1.7140    -0.1050    -0.1630 cc         1 NRP       0.460600
      5 C2           0.3840    -0.9590     0.0320 c          1 NRP       0.542200
      6 N2          -0.9540     0.9950    -0.3340 nd         1 NRP      -0.674300
      7 O2           1.3340    -1.7250     0.1560 o          1 NRP      -0.530000
      8 N3          -0.9570    -1.2660     0.0620 n          1 NRP      -0.279300
      9 OXT         -2.6000    -4.3820    -0.9750 o          1 NRP      -0.722500
     10 CZ           5.6070     0.8030     0.4480 ca         1 NRP       0.133100
     11 CA2          0.3370     0.4970    -0.2160 cd         1 NRP       0.033400
     12 CA3         -1.4340    -2.6760     0.2010 c3         1 NRP      -0.050000
     13 CB2          1.4070     1.3600    -0.3310 ce         1 NRP      -0.094200
     14 CD1          3.2860     0.4380     1.0820 ca         1 NRP      -0.053000
     15 CD2          3.8130     1.6940    -0.9330 ca         1 NRP      -0.053000
     16 CD3         -4.6530     3.6000    -0.0410 c3         1 NRP      -0.087600
     17 CD4         -5.0750     1.7320     1.6370 c3         1 NRP      -0.087600
     18 CE1          4.6590     0.2660     1.3300 ca         1 NRP      -0.189500
     19 CE2          5.1860     1.5200    -0.6830 ca         1 NRP      -0.189500
     20 CG1         -4.1330     2.2620     0.5300 c3         1 NRP      -0.058700
     21 CG2          2.8550     1.1440    -0.0600 ca         1 NRP      -0.079800
     22 HN          -4.9570    -0.8240     0.0970 hn         1 NRP       0.369400
     23 HOH          7.4420     1.0720    -0.0180 ho         1 NRP       0.457000
     24 HA3         -2.1860    -2.7300     0.9960 h1         1 NRP       0.054200
     25 HA3A        -0.5990    -3.3140     0.5140 h1         1 NRP       0.054200
     26 HB1         -3.2880     1.7010    -1.3840 hc         1 NRP       0.055200
     27 HB1A        -4.8520     1.0040    -1.0940 hc         1 NRP       0.055200
     28 HB2          1.1470     2.3840    -0.6030 ha         1 NRP       0.175000
     29 HD1          2.5600     0.0320     1.7820 ha         1 NRP       0.135000
     30 HD2          3.4910     2.2530    -1.8100 ha         1 NRP       0.135000
     31 HD3         -5.6270     3.4650    -0.5280 hc         1 NRP       0.028533
     32 HD3A        -4.7690     4.3440     0.7560 hc         1 NRP       0.028533
     33 HD3B        -3.9520     4.0060    -0.7810 hc         1 NRP       0.028533
     34 HD4         -6.0510     1.4550     1.2200 hc         1 NRP       0.028533
     35 HD4A        -4.6470     0.8540     2.1330 hc         1 NRP       0.028533
     36 HD4B        -5.2370     2.4990     2.4050 hc         1 NRP       0.028533
     37 HE1          4.9860    -0.2810     2.2110 ha         1 NRP       0.113500
     38 HE2          5.9140     1.9450    -1.3700 ha         1 NRP       0.113500
     39 HG1         -3.1630     2.4710     1.0000 hc         1 NRP       0.070700
     40 OH           6.9350     0.6320     0.6970 oh         1 NRP      -0.537100
     41 CB1         -3.8950     1.2260    -0.6040 c3         1 NRP      -0.152700
     42 CA1         -3.2210    -0.0730    -0.1560 ce         1 NRP       0.388000
@<TRIPOS>BOND
     1     1     3 1   
     2     1     9 1   
     3     1    12 1   
     4     2    22 1   
     5     2    42 2   
     6     4     6 2   
     7     4     8 1   
     8     4    42 1   
     9     5     7 2   
    10     5     8 1   
    11     5    11 1   
    12     6    11 1   
    13     8    12 1   
    14    10    18 ar  
    15    10    19 ar  
    16    10    40 1   
    17    11    13 2   
    18    12    24 1   
    19    12    25 1   
    20    13    21 1   
    21    13    28 1   
    22    14    18 ar  
    23    14    21 ar  
    24    14    29 1   
    25    15    19 ar  
    26    15    21 ar  
    27    15    30 1   
    28    16    20 1   
    29    16    31 1   
    30    16    32 1   
    31    16    33 1   
    32    17    20 1   
    33    17    34 1   
    34    17    35 1   
    35    17    36 1   
    36    18    37 1   
    37    19    38 1   
    38    20    39 1   
    39    20    41 1   
    40    23    40 1   
    41    26    41 1   
    42    27    41 1   
    43    41    42 1   
@<TRIPOS>SUBSTRUCTURE
     1 NRP         1 TEMP              0 ****  ****    0 ROOT
