@<TRIPOS>MOLECULE
NRP
   42    43     1     0     0
SMALL
bcc


@<TRIPOS>ATOM
      1 C           -2.0380    -3.4370    -0.7200 c          1 NRP       0.930600
      2 N           -4.0650    -1.1180    -0.1770 n2         1 NRP      -0.674100
      3 O           -1.5980    -2.9220    -1.7600 o          1 NRP      -0.827800
      4 C1          -1.8560    -0.2600    -0.1430 cc         1 NRP       0.460600
      5 C2           0.1200    -1.1230     0.4170 c          1 NRP       0.684700
      6 N2          -1.0430     0.7020    -0.4140 nd         1 NRP      -0.674300
      7 O2           0.9670    -1.9190     0.7850 o          1 NRP      -0.605500
      8 N3          -1.2320    -1.3680     0.3960 n          1 NRP      -0.346300
      9 OXT         -2.6490    -4.5150    -0.5950 o          1 NRP      -0.827800
     10 CZ           5.5080     1.0510     0.2650 ca         1 NRP       0.133100
     11 CA2          0.2340     0.2620    -0.0880 cd         1 NRP       0.033400
     12 CA3         -1.7730    -2.6890     0.6030 c3         1 NRP      -0.050000
     13 CB2          1.2890     1.0940    -0.2750 ce         1 NRP      -0.044200
     14 CD1          3.4020    -0.1010     0.4770 ca         1 NRP      -0.071000
     15 CD2          3.4740     2.1230    -0.4190 ca         1 NRP      -0.071000
     16 CD3         -4.2430     3.6280    -0.1580 c3         1 NRP      -0.087600
     17 CD4         -4.6890     1.8150     1.5180 c3         1 NRP      -0.087600
     18 CE1          4.7710    -0.0760     0.6370 ca         1 NRP      -0.207500
     19 CE2          4.8450     2.1580    -0.2660 ca         1 NRP      -0.207500
     20 CG1         -3.7930     2.2710     0.3720 c3         1 NRP      -0.058700
     21 CG2          2.7120     1.0000    -0.0590 ca         1 NRP      -0.079800
     22 HN          -5.0320    -0.8690    -0.3710 hn         1 NRP       0.369400
     23 HOH          7.2420     1.8340     0.1290 ho         1 NRP       0.418000
     24 HA3         -2.6810    -2.6330     1.1960 h1         1 NRP       0.054200
     25 HA3A        -1.0380    -3.2480     1.1870 h1         1 NRP       0.054200
     26 HB1         -3.1400     1.6320    -1.5820 hc         1 NRP       0.055200
     27 HB1A        -4.7870     1.1580    -1.1880 hc         1 NRP       0.055200
     28 HB2          0.9810     2.0530    -0.6820 ha         1 NRP       0.125000
     29 HD1          2.8590    -0.9850     0.7710 ha         1 NRP       0.153000
     30 HD2          2.9780     2.9920    -0.8330 ha         1 NRP       0.153000
     31 HD3         -5.2660     3.5810    -0.5400 hc         1 NRP       0.028533
     32 HD3A        -4.2180     4.3830     0.6290 hc         1 NRP       0.028533
     33 HD3B        -3.6010     3.9720    -0.9710 hc         1 NRP       0.028533
     34 HD4         -5.7140     1.6560     1.1740 hc         1 NRP       0.028533
     35 HD4A        -4.3450     0.8830     1.9690 hc         1 NRP       0.028533
     36 HD4B        -4.7200     2.5660     2.3090 hc         1 NRP       0.028533
     37 HE1          5.2830    -0.9350     1.0520 ha         1 NRP       0.131500
     38 HE2          5.3990     3.0420    -0.5600 ha         1 NRP       0.131500
     39 HG1         -2.7720     2.3750     0.7480 hc         1 NRP       0.070700
     40 OH           6.8340     1.0160     0.4390 oh         1 NRP      -0.498100
     41 CB1         -3.7760     1.2520    -0.7790 c3         1 NRP      -0.152700
     42 CA1         -3.3090    -0.1170    -0.3650 ce         1 NRP       0.388000
@<TRIPOS>BOND
     1     1     3 1   
     2     1     9 1   
     3     1    12 1   
     4     2    22 1   
     5     2    42 2   
     6     4     6 2   
     7     4     8 1   
     8     4    42 1   
     9     5     7 2   
    10     5     8 1   
    11     5    11 1   
    12     6    11 1   
    13     8    12 1   
    14    10    18 ar  
    15    10    19 ar  
    16    10    40 1   
    17    11    13 2   
    18    12    24 1   
    19    12    25 1   
    20    13    21 1   
    21    13    28 1   
    22    14    18 ar  
    23    14    21 ar  
    24    14    29 1   
    25    15    19 ar  
    26    15    21 ar  
    27    15    30 1   
    28    16    20 1   
    29    16    31 1   
    30    16    32 1   
    31    16    33 1   
    32    17    20 1   
    33    17    34 1   
    34    17    35 1   
    35    17    36 1   
    36    18    37 1   
    37    19    38 1   
    38    20    39 1   
    39    20    41 1   
    40    23    40 1   
    41    26    41 1   
    42    27    41 1   
    43    41    42 1   
@<TRIPOS>SUBSTRUCTURE
     1 NRP         1 TEMP              0 ****  ****    0 ROOT
