@<TRIPOS>MOLECULE
NRQ
   40    41     1     0     0
SMALL
abcg2


@<TRIPOS>ATOM
      1 N1          -1.2960     1.5960     1.2840 n2         1 NRQ      -0.750100
      2 CE          -5.9550     3.5030    -0.5130 c3         1 NRQ       0.040900
      3 SD          -5.3010     1.8580    -0.8660 ss         1 NRQ      -0.452000
      4 CG1         -3.6870     1.9960    -0.0450 c3         1 NRQ       0.086600
      5 CB1         -2.9380     0.6850    -0.2160 c3         1 NRQ      -0.117700
      6 CA1         -1.5860     0.6990     0.4410 ce         1 NRQ       0.443000
      7 C1          -0.5530    -0.2810     0.0040 cc         1 NRQ       0.429600
      8 N2           0.6940     0.0500     0.0440 nd         1 NRQ      -0.678300
      9 CD2          3.5740     1.0600     0.2480 ca         1 NRQ      -0.049000
     10 CE2          4.6310     1.9020     0.5290 ca         1 NRQ      -0.190000
     11 CZ           5.9430     1.4980     0.2700 ca         1 NRQ       0.134100
     12 CE1          6.1780     0.2360    -0.2770 ca         1 NRQ      -0.190000
     13 CD1          5.1140    -0.5970    -0.5540 ca         1 NRQ      -0.049000
     14 CG2          3.7880    -0.2130    -0.3000 ca         1 NRQ      -0.080800
     15 CA2          1.4010    -1.0270    -0.4610 cd         1 NRQ       0.027400
     16 C2           0.4420    -2.0870    -0.8310 c          1 NRQ       0.530200
     17 O2           0.6320    -3.2020    -1.2730 o          1 NRQ      -0.521000
     18 N3          -0.7880    -1.5260    -0.5370 n          1 NRQ      -0.295300
     19 CA3         -2.0010    -2.3030    -0.4510 c3         1 NRQ      -0.067000
     20 C3          -2.5230    -2.4470     0.9970 c          1 NRQ       0.707000
     21 O3          -1.8970    -1.8430     1.8850 o          1 NRQ      -0.711000
     22 OXT         -3.5360    -3.1560     1.1140 o          1 NRQ      -0.711000
     23 H2          -0.3380     1.4830     1.6130 hn         1 NRQ       0.402400
     24 HE1A        -5.9950     3.6860     0.5600 h1         1 NRQ       0.051700
     25 HE2A        -5.3570     4.2780    -0.9890 h1         1 NRQ       0.051700
     26 HE3         -6.9670     3.5500    -0.9110 h1         1 NRQ       0.051700
     27 HG11        -3.1270     2.8210    -0.4880 h1         1 NRQ       0.065200
     28 HG12        -3.8410     2.2210     1.0100 h1         1 NRQ       0.065200
     29 HB11        -3.5380    -0.1250     0.2080 hc         1 NRQ       0.084200
     30 HB12        -2.8210     0.4560    -1.2790 hc         1 NRQ       0.084200
     31 HOH          6.7220     3.1190     0.9090 ho         1 NRQ       0.461000
     32 HD2          2.5670     1.3910     0.4580 ha         1 NRQ       0.131500
     33 HE2          4.4360     2.8800     0.9530 ha         1 NRQ       0.113500
     34 HE1          7.1920    -0.0840    -0.4780 ha         1 NRQ       0.113500
     35 HD1          5.3130    -1.5740    -0.9770 ha         1 NRQ       0.131500
     36 HB2          3.0660    -2.0940    -1.0400 ha         1 NRQ       0.183000
     37 HA31        -2.7760    -1.8850    -1.0950 h1         1 NRQ       0.052700
     38 HA32        -1.7760    -3.2910    -0.8550 h1         1 NRQ       0.052700
     39 CB2          2.7360    -1.1490    -0.6170 ce         1 NRQ      -0.092200
     40 OH           7.0020     2.2780     0.5260 oh         1 NRQ      -0.541100
@<TRIPOS>BOND
     1     1     6 2   
     2     1    23 1   
     3     2     3 1   
     4     2    24 1   
     5     2    25 1   
     6     2    26 1   
     7     3     4 1   
     8     4     5 1   
     9     4    27 1   
    10     4    28 1   
    11     5     6 1   
    12     5    29 1   
    13     5    30 1   
    14     6     7 1   
    15     7     8 2   
    16     7    18 1   
    17     8    15 1   
    18     9    10 ar  
    19     9    14 ar  
    20     9    32 1   
    21    10    11 ar  
    22    10    33 1   
    23    11    12 ar  
    24    11    40 1   
    25    12    13 ar  
    26    12    34 1   
    27    13    14 ar  
    28    13    35 1   
    29    14    39 1   
    30    15    16 1   
    31    15    39 2   
    32    16    17 2   
    33    16    18 1   
    34    18    19 1   
    35    19    20 1   
    36    19    37 1   
    37    19    38 1   
    38    20    21 1   
    39    20    22 1   
    40    31    40 1   
    41    36    39 1   
@<TRIPOS>SUBSTRUCTURE
     1 NRQ         1 TEMP              0 ****  ****    0 ROOT
