@<TRIPOS>MOLECULE
NRQ
   40    41     1     0     0
SMALL
No Charge or Current Charge


@<TRIPOS>ATOM
      1 N1          -1.6430     0.5610     2.1410 n2         1 NRQ      -0.750100
      2 CE          -5.0220     4.0860    -0.7720 c3         1 NRQ       0.040900
      3 SD          -4.8690     2.2520    -0.9590 ss         1 NRQ      -0.452000
      4 CG1         -3.3830     1.9490     0.1010 c3         1 NRQ       0.086600
      5 CB1         -3.0360     0.4470     0.1120 c3         1 NRQ      -0.117700
      6 CA1         -1.7880     0.1240     0.9220 ce         1 NRQ       0.443000
      7 C1          -0.6660    -0.5640     0.2170 cc         1 NRQ       0.429600
      8 N2           0.5990    -0.1060     0.2070 nd         1 NRQ      -0.678300
      9 CD2          3.3190     1.3690    -0.3400 ca         1 NRQ      -0.049000
     10 CE2          4.3160     2.3100    -0.0220 ca         1 NRQ      -0.190000
     11 CZ           5.6380     1.8900     0.1840 ca         1 NRQ       0.134100
     12 CE1          5.9680     0.5340     0.0660 ca         1 NRQ      -0.190000
     13 CD1          4.9740    -0.4090    -0.2530 ca         1 NRQ      -0.049000
     14 CG2          3.6390    -0.0010    -0.4490 ca         1 NRQ      -0.080800
     15 CA2          1.2570    -1.0870    -0.5320 cd         1 NRQ       0.027400
     16 C2           0.3740    -2.1950    -0.9550 c          1 NRQ       0.530200
     17 O2           0.6260    -3.2140    -1.5870 o          1 NRQ      -0.521000
     18 N3          -0.8310    -1.7900    -0.4280 n          1 NRQ      -0.295300
     19 CA3         -2.0520    -2.6510    -0.4550 c3         1 NRQ      -0.067000
     20 C3          -2.5900    -3.0580     0.9340 c          1 NRQ       0.707000
     21 O3          -1.8000    -3.5100     1.7490 o          1 NRQ      -0.711000
     22 OXT         -3.7700    -2.8560     1.1740 o          1 NRQ      -0.711000
     23 H2          -0.6630     0.4100     2.4310 hn         1 NRQ       0.402400
     24 HE1A        -5.1710     4.3420     0.2850 h1         1 NRQ       0.051700
     25 HE2A        -4.1110     4.5760    -1.1370 h1         1 NRQ       0.051700
     26 HE3         -5.8810     4.4470    -1.3530 h1         1 NRQ       0.051700
     27 HG11        -2.5350     2.5250    -0.2940 h1         1 NRQ       0.065200
     28 HG12        -3.5920     2.2950     1.1220 h1         1 NRQ       0.065200
     29 HB11        -3.8890    -0.1100     0.5130 hc         1 NRQ       0.084200
     30 HB12        -2.9090     0.1260    -0.9270 hc         1 NRQ       0.084200
     31 HOH          6.1950     3.6870     0.5300 ho         1 NRQ       0.461000
     32 HD2          2.3030     1.7140    -0.5150 ha         1 NRQ       0.131500
     33 HE2          4.0520     3.3620     0.0590 ha         1 NRQ       0.113500
     34 HE1          6.9930     0.2080     0.2210 ha         1 NRQ       0.113500
     35 HD1          5.2420    -1.4600    -0.3410 ha         1 NRQ       0.131500
     36 HB2          3.0030    -1.8950    -1.3340 ha         1 NRQ       0.183000
     37 HA31        -2.8480    -2.1370    -1.0060 h1         1 NRQ       0.052700
     38 HA32        -1.8340    -3.5790    -0.9970 h1         1 NRQ       0.052700
     39 CB2          2.6110    -1.0280    -0.8020 ce         1 NRQ      -0.092200
     40 OH           6.6060     2.7960     0.4920 oh         1 NRQ      -0.541100
@<TRIPOS>BOND
     1     1     6 2   
     2     1    23 1   
     3     2     3 1   
     4     2    24 1   
     5     2    25 1   
     6     2    26 1   
     7     3     4 1   
     8     4     5 1   
     9     4    27 1   
    10     4    28 1   
    11     5     6 1   
    12     5    29 1   
    13     5    30 1   
    14     6     7 1   
    15     7     8 2   
    16     7    18 1   
    17     8    15 1   
    18     9    10 ar  
    19     9    14 ar  
    20     9    32 1   
    21    10    11 ar  
    22    10    33 1   
    23    11    12 ar  
    24    11    40 1   
    25    12    13 ar  
    26    12    34 1   
    27    13    14 ar  
    28    13    35 1   
    29    14    39 1   
    30    15    16 1   
    31    15    39 2   
    32    16    17 2   
    33    16    18 1   
    34    18    19 1   
    35    19    20 1   
    36    19    37 1   
    37    19    38 1   
    38    20    21 1   
    39    20    22 1   
    40    31    40 1   
    41    36    39 1   
@<TRIPOS>SUBSTRUCTURE
     1 NRQ         1 TEMP              0 ****  ****    0 ROOT
