@<TRIPOS>MOLECULE
NRS
   42    45     1     0     0
SMALL
abcg2


@<TRIPOS>ATOM
      1 O01          0.2320    -3.5690    -0.4640 o          1 NRS      -0.528500
      2 S02         -0.4440    -2.3880     0.0430 sy         1 NRS       1.157600
      3 C03          0.7760    -1.1670     0.4210 ca         1 NRS      -0.303500
      4 C04          2.0040    -1.2200    -0.2190 ca         1 NRS      -0.030000
      5 C05          2.9350    -0.2230     0.0240 ca         1 NRS       0.006600
      6 C06          2.6320     0.8150     0.9060 ca         1 NRS       0.086600
      7 N07          3.5830     1.7870     1.1300 ns         1 NRS      -0.391100
      8 C08          4.8110     1.8290     0.5580 c          1 NRS       0.489000
      9 C09          5.1410     0.6960    -0.4060 c          1 NRS       0.489000
     10 N10          4.1760    -0.2330    -0.5860 ns         1 NRS      -0.390100
     11 O11          6.2190     0.6660    -0.9560 o          1 NRS      -0.478000
     12 O12          5.6240     2.6960     0.7760 o          1 NRS      -0.470000
     13 C13          1.3970     0.8510     1.5430 ca         1 NRS      -0.152000
     14 C14          0.4640    -0.1380     1.3050 ca         1 NRS       0.004000
     15 N15         -1.3210    -1.7630    -1.2290 nh         1 NRS      -0.729300
     16 C16         -2.1760    -0.6650    -0.9130 ca         1 NRS       0.212000
     17 C17         -3.4330    -0.9140    -0.4300 ca         1 NRS      -0.042000
     18 C18         -4.3050     0.1520    -0.1180 ca         1 NRS      -0.037000
     19 C19         -5.6070    -0.0770     0.3860 ca         1 NRS      -0.088000
     20 C20         -6.4360     0.9720     0.6740 ca         1 NRS      -0.106000
     21 C21         -6.0030     2.3000     0.4710 ca         1 NRS      -0.097000
     22 C22         -4.7500     2.5510    -0.0160 ca         1 NRS      -0.103000
     23 C23         -3.8700     1.4870    -0.3220 ca         1 NRS      -0.033000
     24 C24         -2.5690     1.7110    -0.8280 ca         1 NRS      -0.090000
     25 C25         -1.7380     0.6640    -1.1120 ca         1 NRS      -0.127000
     26 C26         -0.6460    -1.7200    -2.5250 c3         1 NRS       0.181100
     27 O27         -1.3420    -2.4930     1.1760 o          1 NRS      -0.528500
     28 H1           2.2530    -2.0280    -0.8950 ha         1 NRS       0.144000
     29 H2           3.3580     2.5350     1.7750 hn         1 NRS       0.336500
     30 H3           4.3870    -0.9910    -1.2240 hn         1 NRS       0.337500
     31 H4           1.1710     1.6550     2.2300 ha         1 NRS       0.129000
     32 H5          -0.4910    -0.1020     1.8090 ha         1 NRS       0.148000
     33 H6          -3.7690    -1.9330    -0.2950 ha         1 NRS       0.138000
     34 H7          -5.9380    -1.0960     0.5420 ha         1 NRS       0.121000
     35 H8          -7.4300     0.7860     1.0600 ha         1 NRS       0.117000
     36 H9          -6.6700     3.1210     0.7020 ha         1 NRS       0.116000
     37 H10         -4.4160     3.5700    -0.1730 ha         1 NRS       0.115000
     38 H11         -2.2300     2.7270    -0.9840 ha         1 NRS       0.117000
     39 H12         -0.7410     0.8600    -1.4870 ha         1 NRS       0.116000
     40 H13         -1.3800    -1.4200    -3.2690 h1         1 NRS       0.054700
     41 H14          0.1900    -1.0160    -2.5630 h1         1 NRS       0.054700
     42 H15         -0.2850    -2.7090    -2.7900 h1         1 NRS       0.054700
@<TRIPOS>BOND
     1     1     2 2   
     2     2     3 1   
     3     2    15 1   
     4     2    27 2   
     5     3     4 ar  
     6     3    14 ar  
     7     4     5 ar  
     8     4    28 1   
     9     5     6 ar  
    10     5    10 1   
    11     6     7 1   
    12     6    13 ar  
    13     7     8 1   
    14     7    29 1   
    15     8     9 1   
    16     8    12 2   
    17     9    10 1   
    18     9    11 2   
    19    10    30 1   
    20    13    14 ar  
    21    13    31 1   
    22    14    32 1   
    23    15    16 1   
    24    15    26 1   
    25    16    17 ar  
    26    16    25 ar  
    27    17    18 ar  
    28    17    33 1   
    29    18    19 ar  
    30    18    23 ar  
    31    19    20 ar  
    32    19    34 1   
    33    20    21 ar  
    34    20    35 1   
    35    21    22 ar  
    36    21    36 1   
    37    22    23 ar  
    38    22    37 1   
    39    23    24 ar  
    40    24    25 ar  
    41    24    38 1   
    42    25    39 1   
    43    26    40 1   
    44    26    41 1   
    45    26    42 1   
@<TRIPOS>SUBSTRUCTURE
     1 NRS         1 TEMP              0 ****  ****    0 ROOT
