@<TRIPOS>MOLECULE
NRS
   42    45     1     0     0
SMALL
No Charge or Current Charge


@<TRIPOS>ATOM
      1 O01          0.4480    -3.8360    -0.8090 o          1 NRS      -0.528500
      2 S02         -0.4340    -2.8330    -0.2000 sy         1 NRS       1.157600
      3 C03          0.5580    -1.4300     0.3440 ca         1 NRS      -0.303500
      4 C04          1.7630    -1.1170    -0.3220 ca         1 NRS      -0.030000
      5 C05          2.5140    -0.0000     0.0820 ca         1 NRS       0.006600
      6 C06          2.0630     0.8060     1.1450 ca         1 NRS       0.086600
      7 N07          2.8360     1.9230     1.5250 ns         1 NRS      -0.391100
      8 C08          4.0270     2.3330     0.9520 c          1 NRS       0.489000
      9 C09          4.5420     1.4160    -0.2620 c          1 NRS       0.489000
     10 N10          3.7230     0.3430    -0.5660 ns         1 NRS      -0.390100
     11 O11          5.5780     1.6330    -0.8830 o          1 NRS      -0.478000
     12 O12          4.6280     3.3230     1.3550 o          1 NRS      -0.470000
     13 C13          0.8650     0.4990     1.8070 ca         1 NRS      -0.152000
     14 C14          0.1100    -0.6180     1.4080 ca         1 NRS       0.004000
     15 N15         -1.3060    -2.0840    -1.4640 nh         1 NRS      -0.729300
     16 C16         -1.9790    -0.8860    -1.1490 ca         1 NRS       0.212000
     17 C17         -3.1260    -0.8940    -0.3310 ca         1 NRS      -0.042000
     18 C18         -3.7820     0.3070    -0.0020 ca         1 NRS      -0.037000
     19 C19         -4.9240     0.2920     0.8220 ca         1 NRS      -0.088000
     20 C20         -5.5730     1.4950     1.1490 ca         1 NRS      -0.106000
     21 C21         -5.0840     2.7160     0.6540 ca         1 NRS      -0.097000
     22 C22         -3.9450     2.7360    -0.1700 ca         1 NRS      -0.103000
     23 C23         -3.2920     1.5340    -0.5010 ca         1 NRS      -0.033000
     24 C24         -2.1540     1.5470    -1.3260 ca         1 NRS      -0.090000
     25 C25         -1.5060     0.3420    -1.6500 ca         1 NRS      -0.127000
     26 C26         -0.8990    -2.3810    -2.8500 c3         1 NRS       0.181100
     27 O27         -1.3960    -3.1880     0.8500 o          1 NRS      -0.528500
     28 H1           2.1090    -1.7320    -1.1510 ha         1 NRS       0.144000
     29 H2           2.4910     2.4860     2.2930 hn         1 NRS       0.336500
     30 H3           4.0310    -0.2500    -1.3290 hn         1 NRS       0.337500
     31 H4           0.5140     1.1220     2.6250 ha         1 NRS       0.129000
     32 H5          -0.8250    -0.8400     1.9210 ha         1 NRS       0.148000
     33 H6          -3.5090    -1.8390     0.0440 ha         1 NRS       0.138000
     34 H7          -5.3080    -0.6490     1.2100 ha         1 NRS       0.121000
     35 H8          -6.4540     1.4810     1.7860 ha         1 NRS       0.117000
     36 H9          -5.5870     3.6470     0.9080 ha         1 NRS       0.116000
     37 H10         -3.5730     3.6850    -0.5500 ha         1 NRS       0.115000
     38 H11         -1.7680     2.4860    -1.7140 ha         1 NRS       0.117000
     39 H12         -0.6190     0.3670    -2.2760 ha         1 NRS       0.116000
     40 H13         -1.5440    -1.8510    -3.5620 h1         1 NRS       0.054700
     41 H14          0.1400    -2.0720    -3.0270 h1         1 NRS       0.054700
     42 H15         -0.9890    -3.4560    -3.0570 h1         1 NRS       0.054700
@<TRIPOS>BOND
     1     1     2 2   
     2     2     3 1   
     3     2    15 1   
     4     2    27 2   
     5     3     4 ar  
     6     3    14 ar  
     7     4     5 ar  
     8     4    28 1   
     9     5     6 ar  
    10     5    10 1   
    11     6     7 1   
    12     6    13 ar  
    13     7     8 1   
    14     7    29 1   
    15     8     9 1   
    16     8    12 2   
    17     9    10 1   
    18     9    11 2   
    19    10    30 1   
    20    13    14 ar  
    21    13    31 1   
    22    14    32 1   
    23    15    16 1   
    24    15    26 1   
    25    16    17 ar  
    26    16    25 ar  
    27    17    18 ar  
    28    17    33 1   
    29    18    19 ar  
    30    18    23 ar  
    31    19    20 ar  
    32    19    34 1   
    33    20    21 ar  
    34    20    35 1   
    35    21    22 ar  
    36    21    36 1   
    37    22    23 ar  
    38    22    37 1   
    39    23    24 ar  
    40    24    25 ar  
    41    24    38 1   
    42    25    39 1   
    43    26    40 1   
    44    26    41 1   
    45    26    42 1   
@<TRIPOS>SUBSTRUCTURE
     1 NRS         1 TEMP              0 ****  ****    0 ROOT
