@<TRIPOS>MOLECULE
NRT
   30    32     1     0     0
SMALL
bcc


@<TRIPOS>ATOM
      1 C2           1.8930    -0.1140    -2.2090 ca         1 NRT       0.951900
      2 C4          -0.1630    -0.0920    -3.0150 ca         1 NRT       0.482800
      3 C5          -0.7380     0.0450    -1.7540 ca         1 NRT      -0.229200
      4 C9          -0.0910     0.4700     2.8920 c5         1 NRT       0.129100
      5 O4          -0.9070    -0.6510     3.1590 os         1 NRT      -0.386600
      6 C3           0.0970    -0.1550     5.2210 c5         1 NRT      -0.112400
      7 C7           0.8420     0.5990     4.1060 c5         1 NRT      -0.109400
      8 N9          -1.2170    -0.1220    -3.8700 na         1 NRT      -0.369000
      9 N3           1.1310    -0.1760    -3.2960 nb         1 NRT      -0.805000
     10 N2           3.2350    -0.1460    -2.3780 nv         1 NRT      -0.939500
     11 N1           1.4660     0.0150    -0.9360 nb         1 NRT      -0.887000
     12 C6           0.1780     0.0940    -0.6970 ca         1 NRT       0.787600
     13 O6          -0.2750     0.2200     0.5370 os         1 NRT      -0.394100
     14 C60          0.6690     0.2660     1.6080 c3         1 NRT       0.149400
     15 C14         -1.2000    -0.6030     4.5410 c5         1 NRT       0.123400
     16 N7          -2.1090     0.0970    -1.8420 nc         1 NRT      -0.506100
     17 C8          -2.3490    -0.0050    -3.1140 cd         1 NRT       0.383700
     18 H4          -0.7120     1.3750     2.8110 h1         1 NRT       0.054700
     19 H3'1         0.6750    -1.0140     5.5620 hc         1 NRT       0.052200
     20 H3'2        -0.1020     0.4710     6.0900 hc         1 NRT       0.052200
     21 H2'1         1.8120     0.1400     3.9040 hc         1 NRT       0.052700
     22 H2'2         1.0230     1.6450     4.3510 hc         1 NRT       0.052700
     23 H9          -1.1780    -0.2070    -4.8740 hn         1 NRT       0.316700
     24 H2N1         3.8040    -0.3510    -1.5750 hn         1 NRT       0.433800
     25 H2N2         3.5900    -0.4640    -3.2630 hn         1 NRT       0.433800
     26 H601         1.2460    -0.6630     1.6470 h1         1 NRT       0.058700
     27 H602         1.3690     1.0910     1.4640 h1         1 NRT       0.058700
     28 H141        -1.5440    -1.5880     4.8580 h1         1 NRT       0.048700
     29 H142        -2.0040     0.1190     4.7380 h1         1 NRT       0.048700
     30 H8          -3.3280    -0.0020    -3.5700 h5         1 NRT       0.065800
@<TRIPOS>BOND
     1     1     9 ar  
     2     1    10 1   
     3     1    11 ar  
     4     2     3 ar  
     5     2     8 1   
     6     2     9 ar  
     7     3    12 ar  
     8     3    16 1   
     9     4     5 1   
    10     4     7 1   
    11     4    14 1   
    12     4    18 1   
    13     5    15 1   
    14     6     7 1   
    15     6    15 1   
    16     6    19 1   
    17     6    20 1   
    18     7    21 1   
    19     7    22 1   
    20     8    17 1   
    21     8    23 1   
    22    10    24 1   
    23    10    25 1   
    24    11    12 ar  
    25    12    13 1   
    26    13    14 1   
    27    14    26 1   
    28    14    27 1   
    29    15    28 1   
    30    15    29 1   
    31    16    17 2   
    32    17    30 1   
@<TRIPOS>SUBSTRUCTURE
     1 NRT         1 TEMP              0 ****  ****    0 ROOT
