@<TRIPOS>MOLECULE
NRT
   30    32     1     0     0
SMALL
No Charge or Current Charge


@<TRIPOS>ATOM
      1 C2           1.9300    -0.1240    -2.3500 ca         1 NRT       0.425900
      2 C4          -0.1970     0.0100    -3.1210 ca         1 NRT       0.154500
      3 C5          -0.6580     0.1060    -1.8330 ca         1 NRT      -0.098600
      4 C9          -0.0250     0.2750     2.9530 c5         1 NRT       0.152300
      5 O4          -0.6180    -0.9870     3.3150 os         1 NRT      -0.433000
      6 C3          -0.1900     0.2310     5.3290 c5         1 NRT      -0.112400
      7 C7           0.8300     0.5690     4.2060 c5         1 NRT      -0.109400
      8 N9          -1.2880     0.0600    -3.9400 na         1 NRT      -0.419300
      9 N3           1.1080    -0.1080    -3.4120 nb         1 NRT      -0.279000
     10 N2           3.2480    -0.2430    -2.6130 nv         1 NRT      -1.049900
     11 N1           1.6060    -0.0400    -1.0540 nb         1 NRT      -0.361000
     12 C6           0.2870     0.0780    -0.7770 ca         1 NRT       0.459300
     13 O6          -0.1560     0.1740     0.5270 os         1 NRT      -0.417300
     14 C60          0.7740     0.1570     1.6300 c3         1 NRT       0.172600
     15 C14         -1.0840    -0.8690     4.6770 c5         1 NRT       0.146600
     16 N7          -2.0440     0.2200    -1.7790 nc         1 NRT      -0.506100
     17 C8          -2.3860     0.1880    -3.0790 cd         1 NRT       0.383700
     18 H4          -0.8180     1.0270     2.8330 h1         1 NRT       0.054700
     19 H3'1         0.3010    -0.1200     6.2440 hc         1 NRT       0.052200
     20 H3'2        -0.7910     1.1060     5.6000 hc         1 NRT       0.052200
     21 H2'1         1.7110    -0.0830     4.2510 hc         1 NRT       0.052700
     22 H2'2         1.1780     1.6070     4.2480 hc         1 NRT       0.052700
     23 H9          -1.3090     0.0150    -4.9500 hn         1 NRT       0.367000
     24 H2N1         3.8690    -0.4870    -1.8460 hn         1 NRT       0.489000
     25 H2N2         3.5320    -0.5390    -3.5440 hn         1 NRT       0.489000
     26 H601         1.3640    -0.7680     1.6410 h1         1 NRT       0.058700
     27 H602         1.4650     1.0070     1.5580 h1         1 NRT       0.058700
     28 H141        -0.9880    -1.8420     5.1770 h1         1 NRT       0.048700
     29 H142        -2.1430    -0.5770     4.6730 h1         1 NRT       0.048700
     30 H8          -3.3960     0.2520    -3.4680 h5         1 NRT       0.065800
@<TRIPOS>BOND
     1     1     9 ar  
     2     1    10 1   
     3     1    11 ar  
     4     2     3 ar  
     5     2     8 1   
     6     2     9 ar  
     7     3    12 ar  
     8     3    16 1   
     9     4     5 1   
    10     4     7 1   
    11     4    14 1   
    12     4    18 1   
    13     5    15 1   
    14     6     7 1   
    15     6    15 1   
    16     6    19 1   
    17     6    20 1   
    18     7    21 1   
    19     7    22 1   
    20     8    17 1   
    21     8    23 1   
    22    10    24 1   
    23    10    25 1   
    24    11    12 ar  
    25    12    13 1   
    26    13    14 1   
    27    14    26 1   
    28    14    27 1   
    29    15    28 1   
    30    15    29 1   
    31    16    17 2   
    32    17    30 1   
@<TRIPOS>SUBSTRUCTURE
     1 NRT         1 TEMP              0 ****  ****    0 ROOT
