@<TRIPOS>MOLECULE
NRV
   43    45     1     0     0
SMALL
No Charge or Current Charge


@<TRIPOS>ATOM
      1 C01         -3.4670     3.1870    -0.0310 c3         1 NRV       0.067900
      2 N02         -3.1720     1.7440    -0.0400 na         1 NRV      -0.194300
      3 C03         -4.1730     0.7580    -0.0400 ca         1 NRV      -0.015200
      4 C04         -5.5700     0.8500    -0.0310 ca         1 NRV      -0.107000
      5 C05         -6.2960    -0.3630    -0.0330 ca         1 NRV      -0.115000
      6 C06         -5.6190    -1.6080    -0.0440 ca         1 NRV       0.143000
      7 F07         -6.3360    -2.7530    -0.0460 f          1 NRV      -0.174000
      8 C08         -4.2090    -1.6700    -0.0530 ca         1 NRV      -0.074000
      9 C09         -3.4920    -0.4570    -0.0500 cp         1 NRV      -0.152500
     10 C10         -2.0630    -0.1620    -0.0570 cp         1 NRV       0.236500
     11 C11         -1.8630     1.2240    -0.0510 ca         1 NRV       0.173500
     12 N12         -0.6270     1.7620    -0.0550 nb         1 NRV      -0.171000
     13 C13          0.3790     0.8500    -0.0660 ca         1 NRV       0.200300
     14 S14          2.0460     1.5060    -0.0730 ss         1 NRV      -0.311300
     15 C15          3.1310     0.0010    -0.0700 c3         1 NRV       0.045600
     16 C16          4.6240     0.4020    -0.0670 c3         1 NRV       0.180800
     17 N17          5.5930    -0.7250     0.1030 n3         1 NRV      -0.734600
     18 C18          5.4890    -1.7380    -0.9870 c3         1 NRV       0.173800
     19 C19          6.2960    -3.0340    -0.7610 c3         1 NRV      -0.090100
     20 C20          6.9920    -0.2510     0.3150 c3         1 NRV       0.173800
     21 C21          7.2080     0.6310     1.5630 c3         1 NRV      -0.090100
     22 N22          0.2110    -0.5050    -0.0720 nb         1 NRV      -0.138000
     23 N23         -1.0370    -1.0310    -0.0680 nb         1 NRV      -0.221000
     24 H1          -4.0430     3.4380     0.8690 h1         1 NRV       0.059367
     25 H2          -2.5360     3.7680    -0.0330 h1         1 NRV       0.059367
     26 H3          -4.0530     3.4480    -0.9200 h1         1 NRV       0.059367
     27 H4          -6.0770     1.8120    -0.0230 ha         1 NRV       0.128000
     28 H5          -7.3830    -0.3430    -0.0270 ha         1 NRV       0.136000
     29 H6          -3.6940    -2.6280    -0.0610 ha         1 NRV       0.153000
     30 H7           2.9150    -0.5970     0.8240 h1         1 NRV       0.086200
     31 H8           2.9010    -0.5970    -0.9590 h1         1 NRV       0.086200
     32 H9           4.8400     0.9460    -0.9970 h1         1 NRV       0.041200
     33 H10          4.7400     1.1200     0.7550 h1         1 NRV       0.041200
     34 H12          4.4450    -2.0520    -1.1050 h1         1 NRV       0.029450
     35 H13          5.7980    -1.2950    -1.9440 h1         1 NRV       0.029450
     36 H14          7.3740    -2.8580    -0.8470 hc         1 NRV       0.037700
     37 H15          6.0830    -3.4550     0.2280 hc         1 NRV       0.037700
     38 H16          6.0220    -3.7800    -1.5160 hc         1 NRV       0.037700
     39 H17          7.6610    -1.1110     0.4380 h1         1 NRV       0.029450
     40 H18          7.3410     0.3000    -0.5690 h1         1 NRV       0.029450
     41 H19          6.7540     1.6210     1.4410 hc         1 NRV       0.037700
     42 H20          6.7830     0.1530     2.4530 hc         1 NRV       0.037700
     43 H21          8.2810     0.7790     1.7340 hc         1 NRV       0.037700
@<TRIPOS>BOND
     1     1     2 1   
     2     1    24 1   
     3     1    25 1   
     4     1    26 1   
     5     2     3 1   
     6     2    11 1   
     7     3     4 ar  
     8     3     9 ar  
     9     4     5 ar  
    10     4    27 1   
    11     5     6 ar  
    12     5    28 1   
    13     6     7 1   
    14     6     8 ar  
    15     8     9 ar  
    16     8    29 1   
    17     9    10 1   
    18    10    11 ar  
    19    10    23 ar  
    20    11    12 ar  
    21    12    13 ar  
    22    13    14 1   
    23    13    22 ar  
    24    14    15 1   
    25    15    16 1   
    26    15    30 1   
    27    15    31 1   
    28    16    17 1   
    29    16    32 1   
    30    16    33 1   
    31    17    18 1   
    32    17    20 1   
    33    18    19 1   
    34    18    34 1   
    35    18    35 1   
    36    19    36 1   
    37    19    37 1   
    38    19    38 1   
    39    20    21 1   
    40    20    39 1   
    41    20    40 1   
    42    21    41 1   
    43    21    42 1   
    44    21    43 1   
    45    22    23 ar  
@<TRIPOS>SUBSTRUCTURE
     1 NRV         1 TEMP              0 ****  ****    0 ROOT
