@<TRIPOS>MOLECULE
NRV
   43    45     1     0     0
SMALL
abcg2


@<TRIPOS>ATOM
      1 C01         -3.2300     3.0060    -0.6770 c3         1 NRV       0.067900
      2 N02         -2.9660     1.6310    -0.3260 na         1 NRV      -0.194300
      3 C03         -3.9350     0.6820    -0.0170 ca         1 NRV      -0.015200
      4 C04         -5.3120     0.8350     0.0120 ca         1 NRV      -0.107000
      5 C05         -6.0750    -0.2710     0.3530 ca         1 NRV      -0.115000
      6 C06         -5.4590    -1.4820     0.6530 ca         1 NRV       0.143000
      7 F07         -6.2380    -2.5260     0.9790 f          1 NRV      -0.174000
      8 C08         -4.0920    -1.6560     0.6300 ca         1 NRV      -0.074000
      9 C09         -3.3270    -0.5490     0.2870 cp         1 NRV      -0.152500
     10 C10         -1.9150    -0.3170     0.1500 cp         1 NRV       0.236500
     11 C11         -1.7580     1.0480    -0.2260 ca         1 NRV       0.173500
     12 N12         -0.5810     1.5830    -0.4270 nb         1 NRV      -0.171000
     13 C13          0.4170     0.7140    -0.2440 ca         1 NRV       0.200300
     14 S14          2.0010     1.4020    -0.4960 ss         1 NRV      -0.311300
     15 C15          3.1170     0.0060    -0.1710 c3         1 NRV       0.045600
     16 C16          4.5490     0.5280    -0.2300 c3         1 NRV       0.180800
     17 N17          5.4830    -0.5740    -0.1030 n3         1 NRV      -0.734600
     18 C18          5.7250    -1.2350    -1.3780 c3         1 NRV       0.173800
     19 C19          6.1320    -2.6900    -1.2140 c3         1 NRV      -0.090100
     20 C20          6.7200    -0.1850     0.5600 c3         1 NRV       0.173800
     21 C21          6.5530    -0.0010     2.0600 c3         1 NRV      -0.090100
     22 N22          0.3210    -0.5670     0.0990 nb         1 NRV      -0.138000
     23 N23         -0.8740    -1.0920     0.3010 nb         1 NRV      -0.221000
     24 H1          -3.6840     3.5360     0.1580 h1         1 NRV       0.059367
     25 H2          -2.2920     3.4890    -0.9340 h1         1 NRV       0.059367
     26 H3          -3.8970     3.0540    -1.5360 h1         1 NRV       0.059367
     27 H4          -5.7900     1.7760    -0.2220 ha         1 NRV       0.128000
     28 H5          -7.1540    -0.1970     0.3880 ha         1 NRV       0.136000
     29 H6          -3.6420    -2.6100     0.8700 ha         1 NRV       0.153000
     30 H7           2.9060    -0.4050     0.8140 h1         1 NRV       0.086200
     31 H8           2.9410    -0.7690    -0.9160 h1         1 NRV       0.086200
     32 H9           4.7130     1.1040    -1.1550 h1         1 NRV       0.041200
     33 H10          4.6950     1.2270     0.5940 h1         1 NRV       0.041200
     34 H12          4.8080    -1.1970    -1.9680 h1         1 NRV       0.029450
     35 H13          6.4840    -0.6950    -1.9680 h1         1 NRV       0.029450
     36 H14          7.0420    -2.7980    -0.6230 hc         1 NRV       0.037700
     37 H15          5.3420    -3.2560    -0.7200 hc         1 NRV       0.037700
     38 H16          6.3190    -3.1460    -2.1870 hc         1 NRV       0.037700
     39 H17          7.4540    -0.9750     0.3950 h1         1 NRV       0.029450
     40 H18          7.1470     0.7260     0.1120 h1         1 NRV       0.029450
     41 H19          5.8350     0.7830     2.3070 hc         1 NRV       0.037700
     42 H20          6.2120    -0.9260     2.5260 hc         1 NRV       0.037700
     43 H21          7.5040     0.2770     2.5150 hc         1 NRV       0.037700
@<TRIPOS>BOND
     1     1     2 1   
     2     1    24 1   
     3     1    25 1   
     4     1    26 1   
     5     2     3 1   
     6     2    11 1   
     7     3     4 ar  
     8     3     9 ar  
     9     4     5 ar  
    10     4    27 1   
    11     5     6 ar  
    12     5    28 1   
    13     6     7 1   
    14     6     8 ar  
    15     8     9 ar  
    16     8    29 1   
    17     9    10 1   
    18    10    11 ar  
    19    10    23 ar  
    20    11    12 ar  
    21    12    13 ar  
    22    13    14 1   
    23    13    22 ar  
    24    14    15 1   
    25    15    16 1   
    26    15    30 1   
    27    15    31 1   
    28    16    17 1   
    29    16    32 1   
    30    16    33 1   
    31    17    18 1   
    32    17    20 1   
    33    18    19 1   
    34    18    34 1   
    35    18    35 1   
    36    19    36 1   
    37    19    37 1   
    38    19    38 1   
    39    20    21 1   
    40    20    39 1   
    41    20    40 1   
    42    21    41 1   
    43    21    42 1   
    44    21    43 1   
    45    22    23 ar  
@<TRIPOS>SUBSTRUCTURE
     1 NRV         1 TEMP              0 ****  ****    0 ROOT
