@<TRIPOS>MOLECULE
NRW
   30    31     1     0     0
SMALL
No Charge or Current Charge


@<TRIPOS>ATOM
      1 C01          5.3450     1.2780    -0.7090 c3         1 NRW      -0.133400
      2 C02          4.0750     0.5010    -0.5260 cc         1 NRW       0.270300
      3 C03          2.9870     0.9900     0.2120 cc         1 NRW      -0.184000
      4 C04          2.0420     0.0140     0.1470 cd         1 NRW       0.114500
      5 C05          0.6820     0.0730     0.7950 c          1 NRW       0.534600
      6 N06         -0.2270    -1.0180     0.6480 n          1 NRW      -0.394800
      7 C07          0.0600    -2.2340    -0.1490 c3         1 NRW       0.092300
      8 C08         -1.5650    -0.9510     1.2830 c3         1 NRW       0.148300
      9 C09         -2.5980    -0.2590     0.4090 ca         1 NRW      -0.171300
     10 C10         -3.2680    -0.9580    -0.6110 ca         1 NRW      -0.067000
     11 C11         -4.2100    -0.2620    -1.3860 ca         1 NRW      -0.168000
     12 C12         -4.4500     1.0960    -1.1180 ca         1 NRW       0.341900
     13 N13         -3.8110     1.7760    -0.1380 nb         1 NRW      -0.665000
     14 C14         -2.9010     1.1030     0.6070 ca         1 NRW       0.357900
     15 O15          0.3480     1.0550     1.4510 o          1 NRW      -0.580100
     16 O16          2.5320    -1.0300    -0.5990 os         1 NRW      -0.064700
     17 N17          3.8660    -0.7000    -1.0370 nd         1 NRW      -0.356300
     18 H01          5.8110     1.4900     0.2600 hc         1 NRW       0.058700
     19 H01A         6.0680     0.7230    -1.3180 hc         1 NRW       0.058700
     20 H01B         5.1450     2.2340    -1.2070 hc         1 NRW       0.058700
     21 H03          2.9300     1.9460     0.7200 ha         1 NRW       0.166000
     22 H07          0.9220    -2.7660     0.2740 h1         1 NRW       0.048367
     23 H07A        -0.8000    -2.9150    -0.1400 h1         1 NRW       0.048367
     24 H07B         0.2630    -1.9590    -1.1920 h1         1 NRW       0.048367
     25 H08         -1.9120    -1.9680     1.5110 h1         1 NRW       0.069700
     26 H08A        -1.4900    -0.4330     2.2490 h1         1 NRW       0.069700
     27 H10         -3.0660    -2.0110    -0.8000 ha         1 NRW       0.116000
     28 H11         -4.7500    -0.7620    -2.1840 ha         1 NRW       0.125000
     29 H12         -5.1770     1.6570    -1.7050 h4         1 NRW       0.020100
     30 H14         -2.4030     1.6760     1.3890 h4         1 NRW       0.036100
@<TRIPOS>BOND
     1     1     2 1   
     2     1    18 1   
     3     1    19 1   
     4     1    20 1   
     5     2     3 1   
     6     2    17 2   
     7     3     4 2   
     8     3    21 1   
     9     4     5 1   
    10     4    16 1   
    11     5     6 1   
    12     5    15 2   
    13     6     7 1   
    14     6     8 1   
    15     7    22 1   
    16     7    23 1   
    17     7    24 1   
    18     8     9 1   
    19     8    25 1   
    20     8    26 1   
    21     9    10 ar  
    22     9    14 ar  
    23    10    11 ar  
    24    10    27 1   
    25    11    12 ar  
    26    11    28 1   
    27    12    13 ar  
    28    12    29 1   
    29    13    14 ar  
    30    14    30 1   
    31    16    17 1   
@<TRIPOS>SUBSTRUCTURE
     1 NRW         1 TEMP              0 ****  ****    0 ROOT
