@<TRIPOS>MOLECULE
NRW
   30    31     1     0     0
SMALL
bcc


@<TRIPOS>ATOM
      1 C01          5.4020     1.1290    -0.6450 c3         1 NRW      -0.133400
      2 C02          4.1300     0.4770    -0.2410 cc         1 NRW       0.335600
      3 C03          2.9170     1.0980     0.1590 cc         1 NRW      -0.332600
      4 C04          2.0920     0.0570     0.4060 cd         1 NRW       0.224200
      5 C05          0.7030     0.0580     0.9410 c          1 NRW       0.601600
      6 N06         -0.1570    -0.8690     0.4870 n          1 NRW      -0.461800
      7 C07          0.0510    -1.6940    -0.6910 c3         1 NRW       0.092300
      8 C08         -1.4500    -1.0180     1.1410 c3         1 NRW       0.148300
      9 C09         -2.5700    -0.3670     0.3730 ca         1 NRW      -0.236600
     10 C10         -3.5250    -1.1180    -0.2970 ca         1 NRW      -0.085000
     11 C11         -4.5280    -0.4700    -1.0030 ca         1 NRW      -0.251300
     12 C12         -4.5370     0.9150    -1.0100 ca         1 NRW       0.407200
     13 N13         -3.6350     1.6510    -0.3690 nb         1 NRW      -0.665000
     14 C14         -2.6820     1.0210     0.3020 ca         1 NRW       0.423200
     15 O15          0.4260     0.9010     1.7830 o          1 NRW      -0.580100
     16 O16          2.7400    -1.0910     0.1920 os         1 NRW      -0.109100
     17 N17          4.0120    -0.8210    -0.2100 nd         1 NRW      -0.356300
     18 H01          5.7920     1.7390     0.1700 hc         1 NRW       0.058700
     19 H01A         6.1530     0.3890    -0.9140 hc         1 NRW       0.058700
     20 H01B         5.2400     1.7870    -1.4980 hc         1 NRW       0.058700
     21 H03          2.7050     2.1510     0.2390 ha         1 NRW       0.184000
     22 H07          0.3980    -2.6930    -0.4300 h1         1 NRW       0.048367
     23 H07A        -0.8980    -1.7880    -1.2180 h1         1 NRW       0.048367
     24 H07B         0.7490    -1.2380    -1.3860 h1         1 NRW       0.048367
     25 H08         -1.6490    -2.0870     1.2430 h1         1 NRW       0.069700
     26 H08A        -1.3860    -0.6080     2.1470 h1         1 NRW       0.069700
     27 H10         -3.4880    -2.2010    -0.2660 ha         1 NRW       0.134000
     28 H11         -5.2870    -1.0260    -1.5360 ha         1 NRW       0.143000
     29 H12         -5.3070     1.4540    -1.5520 h4         1 NRW       0.020100
     30 H14         -1.9620     1.6470     0.8200 h4         1 NRW       0.036100
@<TRIPOS>BOND
     1     1     2 1   
     2     1    18 1   
     3     1    19 1   
     4     1    20 1   
     5     2     3 1   
     6     2    17 2   
     7     3     4 2   
     8     3    21 1   
     9     4     5 1   
    10     4    16 1   
    11     5     6 1   
    12     5    15 2   
    13     6     7 1   
    14     6     8 1   
    15     7    22 1   
    16     7    23 1   
    17     7    24 1   
    18     8     9 1   
    19     8    25 1   
    20     8    26 1   
    21     9    10 ar  
    22     9    14 ar  
    23    10    11 ar  
    24    10    27 1   
    25    11    12 ar  
    26    11    28 1   
    27    12    13 ar  
    28    12    29 1   
    29    13    14 ar  
    30    14    30 1   
    31    16    17 1   
@<TRIPOS>SUBSTRUCTURE
     1 NRW         1 TEMP              0 ****  ****    0 ROOT
