@<TRIPOS>MOLECULE
NRX
   32    34     1     0     0
SMALL
abcg2


@<TRIPOS>ATOM
      1 N1           6.4090    -0.0620    18.1240 nc         1 NRX      -0.575300
      2 C4          10.2110    -1.0810    22.4070 ca         1 NRX      -0.065300
      3 C5           8.9160    -1.6110    21.8530 c3         1 NRX      -0.106100
      4 C6           8.0290    -0.5070    21.2880 c          1 NRX       0.601100
      5 C7           6.4220    -0.0560    19.4840 cc         1 NRX       0.157200
      6 C8           5.4320     0.7450    17.7430 cd         1 NRX       0.349700
      7 C10          3.2690     2.5300    20.1090 cc         1 NRX      -0.119000
      8 C13          5.4220     0.7710    19.9790 cd         1 NRX      -0.142000
      9 O            7.9330     0.5950    21.8150 o          1 NRX      -0.579100
     10 C3          10.3320    -0.7310    23.7510 ca         1 NRX      -0.085000
     11 C2          11.5300    -0.2260    24.2440 ca         1 NRX      -0.101000
     12 C1          12.6270    -0.0640    23.4060 ca         1 NRX      -0.097000
     13 C14         11.3090    -0.9240    21.5620 ca         1 NRX      -0.093000
     14 C           12.4960    -0.4180    22.0710 ca         1 NRX       0.126000
     15 CL          13.8720    -0.2350    20.9970 cl         1 NRX      -0.215000
     16 N            7.3300    -0.8650    20.1780 ns         1 NRX      -0.391100
     17 N2           4.8040     1.2880    18.8230 na         1 NRX       0.050200
     18 C12          4.9100     1.1510    21.2410 cd         1 NRX      -0.034000
     19 C11          3.8530     2.0100    21.3060 cc         1 NRX      -0.131000
     20 C9           3.7480     2.1710    18.8950 cd         1 NRX      -0.122000
     21 H1           8.3410    -2.0990    22.6450 hc         1 NRX       0.066700
     22 H2           9.1120    -2.3630    21.0880 hc         1 NRX       0.066700
     23 H3           5.1430     0.9710    16.7310 h5         1 NRX       0.072800
     24 H4           2.4390     3.2200    20.1610 ha         1 NRX       0.129000
     25 H5           9.4850    -0.8580    24.4130 ha         1 NRX       0.119000
     26 H6          11.6160     0.0430    25.2900 ha         1 NRX       0.120000
     27 H7          13.5640     0.3260    23.7810 ha         1 NRX       0.130000
     28 H8          11.2370    -1.1940    20.5170 ha         1 NRX       0.128000
     29 H9           7.5440    -1.7550    19.7520 hn         1 NRX       0.330500
     30 H10          5.3790     0.7580    22.1300 ha         1 NRX       0.143000
     31 H11          3.4480     2.3060    22.2640 ha         1 NRX       0.124000
     32 H12          3.3570     2.5220    17.9510 h4         1 NRX       0.143000
@<TRIPOS>BOND
     1     1     5 1   
     2     1     6 2   
     3     2     3 1   
     4     2    10 ar  
     5     2    13 ar  
     6     3     4 1   
     7     3    21 1   
     8     3    22 1   
     9     4     9 2   
    10     4    16 1   
    11     5     8 2   
    12     5    16 1   
    13     6    17 1   
    14     6    23 1   
    15     7    19 1   
    16     7    20 2   
    17     7    24 1   
    18     8    17 1   
    19     8    18 1   
    20    10    11 ar  
    21    10    25 1   
    22    11    12 ar  
    23    11    26 1   
    24    12    14 ar  
    25    12    27 1   
    26    13    14 ar  
    27    13    28 1   
    28    14    15 1   
    29    16    29 1   
    30    17    20 1   
    31    18    19 2   
    32    18    30 1   
    33    19    31 1   
    34    20    32 1   
@<TRIPOS>SUBSTRUCTURE
     1 NRX         1 TEMP              0 ****  ****    0 ROOT
