@<TRIPOS>MOLECULE
NRX
   32    34     1     0     0
SMALL
No Charge or Current Charge


@<TRIPOS>ATOM
      1 N1           6.9940     0.4610    18.4070 nc         1 NRX      -0.575300
      2 C4          10.0890    -1.1180    22.5090 ca         1 NRX      -0.065300
      3 C5           8.6780    -1.6640    22.3100 c3         1 NRX      -0.106100
      4 C6           7.7280    -0.5570    21.8350 c          1 NRX       0.601100
      5 C7           6.6640     0.2610    19.7240 cc         1 NRX       0.157200
      6 C8           6.0480     1.2610    17.8980 cd         1 NRX       0.349700
      7 C10          3.1450     2.2600    19.8750 cc         1 NRX      -0.119000
      8 C13          5.4800     0.8840    20.0490 cd         1 NRX      -0.142000
      9 O            7.2700     0.2730    22.6080 o          1 NRX      -0.579100
     10 C3          10.4430    -0.4930    23.7220 ca         1 NRX      -0.085000
     11 C2          11.7400     0.0140    23.9080 ca         1 NRX      -0.101000
     12 C1          12.6940    -0.1000    22.8820 ca         1 NRX      -0.097000
     13 C14         11.0500    -1.2290    21.4840 ca         1 NRX      -0.093000
     14 C           12.3470    -0.7220    21.6720 ca         1 NRX       0.126000
     15 Cl          13.5390    -0.8650    20.3860 cl         1 NRX      -0.215000
     16 N            7.4880    -0.5510    20.4760 ns         1 NRX      -0.391100
     17 N2           5.1500     1.5430    18.9070 na         1 NRX       0.050200
     18 C12          4.6560     0.8540    21.2160 cd         1 NRX      -0.034000
     19 C11          3.4860     1.5770    21.1050 cc         1 NRX      -0.131000
     20 C9           3.9500     2.2410    18.7380 cd         1 NRX      -0.122000
     21 H1           8.3040    -2.0600    23.2610 hc         1 NRX       0.066700
     22 H2           8.7050    -2.4730    21.5700 hc         1 NRX       0.066700
     23 H3           5.9530     1.6350    16.8850 h5         1 NRX       0.072800
     24 H4           2.2000     2.7950    19.8450 ha         1 NRX       0.129000
     25 H5           9.7100    -0.3980    24.5210 ha         1 NRX       0.119000
     26 H6          12.0060     0.4960    24.8470 ha         1 NRX       0.120000
     27 H7          13.6980     0.2920    23.0230 ha         1 NRX       0.130000
     28 H8          10.7970    -1.7080    20.5420 ha         1 NRX       0.128000
     29 H9           8.0880    -1.1770    19.9560 hn         1 NRX       0.330500
     30 H10          4.8920     0.2940    22.1130 ha         1 NRX       0.143000
     31 H11          2.7900     1.6220    21.9380 ha         1 NRX       0.124000
     32 H12          3.7350     2.7100    17.7850 h4         1 NRX       0.143000
@<TRIPOS>BOND
     1     1     5 1   
     2     1     6 2   
     3     2     3 1   
     4     2    10 ar  
     5     2    13 ar  
     6     3     4 1   
     7     3    21 1   
     8     3    22 1   
     9     4     9 2   
    10     4    16 1   
    11     5     8 2   
    12     5    16 1   
    13     6    17 1   
    14     6    23 1   
    15     7    19 1   
    16     7    20 2   
    17     7    24 1   
    18     8    17 1   
    19     8    18 1   
    20    10    11 ar  
    21    10    25 1   
    22    11    12 ar  
    23    11    26 1   
    24    12    14 ar  
    25    12    27 1   
    26    13    14 ar  
    27    13    28 1   
    28    14    15 1   
    29    16    29 1   
    30    17    20 1   
    31    18    19 2   
    32    18    30 1   
    33    19    31 1   
    34    20    32 1   
@<TRIPOS>SUBSTRUCTURE
     1 NRX         1 TEMP              0 ****  ****    0 ROOT
