@<TRIPOS>MOLECULE
NRY
   41    44     1     0     0
SMALL
No Charge or Current Charge


@<TRIPOS>ATOM
      1 C26         -1.9580     2.9510     1.2820 cc         1 NRY      -0.144000
      2 C25         -3.2820     3.0250     0.8100 cd         1 NRY      -0.095000
      3 C22         -5.0760     0.6310    -1.0460 cc         1 NRY      -0.210000
      4 C23         -5.0550     1.8790    -0.4480 cd         1 NRY      -0.122100
      5 C15          0.2560    -2.5120     0.7630 ca         1 NRY      -0.148000
      6 C14         -0.5130    -1.3680     1.0390 ca         1 NRY      -0.044500
      7 C13         -0.9060    -0.5100    -0.0090 ca         1 NRY      -0.170000
      8 C12         -1.6830     0.7110     0.2680 cd         1 NRY       0.227700
      9 C16          0.6230    -2.8060    -0.5580 ca         1 NRY       0.227000
     10 C06          4.1080    -1.5060    -0.0040 ca         1 NRY       0.233000
     11 C05          3.6620    -0.8540    -1.1600 ca         1 NRY      -0.160000
     12 C02          1.2470     1.7380     0.2770 c          1 NRY       0.582700
     13 C03          2.2640     0.6190     0.2050 ca         1 NRY      -0.221600
     14 C04          2.7470     0.2080    -1.0580 ca         1 NRY      -0.029000
     15 O01          1.2030     2.5880    -0.6040 o          1 NRY      -0.507100
     16 C08          3.6540    -1.0980     1.2570 ca         1 NRY      -0.160000
     17 C09          2.7380    -0.0370     1.3670 ca         1 NRY      -0.029000
     18 N11         -1.1640     1.8070     0.9880 na         1 NRY       0.028300
     19 F17          1.3700    -3.9010    -0.8210 f          1 NRY      -0.144000
     20 C18          0.2150    -1.9710    -1.6090 ca         1 NRY      -0.148000
     21 C19         -0.5510    -0.8250    -1.3360 ca         1 NRY      -0.044500
     22 C20         -3.0140     0.8560    -0.1810 cd         1 NRY      -0.229000
     23 C21         -3.8110    -0.0100    -0.8810 cc         1 NRY      -0.108000
     24 N24         -3.7620     1.9640     0.0530 na         1 NRY       0.157100
     25 H1          -1.4940     3.7360     1.8670 h4         1 NRY       0.186000
     26 H2          -3.9530     3.8570     0.9870 h4         1 NRY       0.189000
     27 H3          -5.9270     0.1840    -1.5600 ha         1 NRY       0.242000
     28 H4          -5.8050     2.6570    -0.3450 h4         1 NRY       0.253000
     29 H5           0.5700    -3.1700     1.5690 ha         1 NRY       0.159500
     30 H6          -0.8010    -1.1500     2.0670 ha         1 NRY       0.138500
     31 H7           4.0220    -1.1740    -2.1340 ha         1 NRY       0.153000
     32 H8           2.4000     0.6970    -1.9670 ha         1 NRY       0.127000
     33 H9           4.0140    -1.6030     2.1490 ha         1 NRY       0.153000
     34 H10          2.4170     0.2690     2.3600 ha         1 NRY       0.127000
     35 H11          0.3890     0.9190     2.0910 h1         1 NRY       0.111200
     36 H12          0.4770     2.6800     2.0300 h1         1 NRY       0.111200
     37 H13          0.5010    -2.2100    -2.6300 ha         1 NRY       0.159500
     38 H14         -0.8560    -0.1720    -2.1530 ha         1 NRY       0.138500
     39 H15         -3.5510    -1.0070    -1.2410 ha         1 NRY       0.239000
     40 C10          0.2470     1.7850     1.4410 c3         1 NRY      -0.076400
     41 F07          4.9850    -2.5290    -0.1040 f          1 NRY      -0.149000
@<TRIPOS>BOND
     1     1     2 2   
     2     1    18 1   
     3     1    25 1   
     4     2    24 1   
     5     2    26 1   
     6     3     4 2   
     7     3    23 1   
     8     3    27 1   
     9     4    24 1   
    10     4    28 1   
    11     5     6 ar  
    12     5     9 ar  
    13     5    29 1   
    14     6     7 ar  
    15     6    30 1   
    16     7     8 1   
    17     7    21 ar  
    18     8    18 2   
    19     8    22 1   
    20     9    19 1   
    21     9    20 ar  
    22    10    11 ar  
    23    10    16 ar  
    24    10    41 1   
    25    11    14 ar  
    26    11    31 1   
    27    12    13 1   
    28    12    15 2   
    29    12    40 1   
    30    13    14 ar  
    31    13    17 ar  
    32    14    32 1   
    33    16    17 ar  
    34    16    33 1   
    35    17    34 1   
    36    18    40 1   
    37    20    21 ar  
    38    20    37 1   
    39    21    38 1   
    40    22    23 2   
    41    22    24 1   
    42    23    39 1   
    43    35    40 1   
    44    36    40 1   
@<TRIPOS>SUBSTRUCTURE
     1 NRY         1 TEMP              0 ****  ****    0 ROOT
