@<TRIPOS>MOLECULE
NRY
   41    44     1     0     0
SMALL
bcc


@<TRIPOS>ATOM
      1 C26         -1.3290     2.5640     0.8550 cc         1 NRY      -0.111300
      2 C25         -2.5690     3.0100     0.6140 cd         1 NRY      -0.062300
      3 C22         -5.3300     1.0860    -0.5500 cc         1 NRY      -0.160000
      4 C23         -4.8090     2.3080    -0.1340 cd         1 NRY      -0.072100
      5 C15         -1.6600    -3.3490     0.7330 ca         1 NRY      -0.166000
      6 C14         -1.9660    -2.0110     0.9230 ca         1 NRY      -0.062500
      7 C13         -1.5290    -1.0560     0.0100 ca         1 NRY      -0.170000
      8 C12         -1.8840     0.3590     0.2250 cd         1 NRY       0.227700
      9 C16         -0.9270    -3.7050    -0.3840 ca         1 NRY       0.191900
     10 C06          5.4140     0.2670     0.2050 ca         1 NRY       0.197900
     11 C05          4.9440     0.7900    -0.9870 ca         1 NRY      -0.178000
     12 C02          1.2920     1.1230    -0.2000 c          1 NRY       0.582700
     13 C03          2.7240     0.8120    -0.0350 ca         1 NRY      -0.221600
     14 C04          3.5940     1.0600    -1.1000 ca         1 NRY      -0.047000
     15 O01          0.8340     1.5770    -1.2230 o          1 NRY      -0.507100
     16 C08          4.5840     0.0040     1.2790 ca         1 NRY      -0.178000
     17 C09          3.2350     0.2810     1.1510 ca         1 NRY      -0.047000
     18 N11         -0.9930     1.2340     0.6830 na         1 NRY       0.006900
     19 F17         -0.6340    -4.9950    -0.5760 f          1 NRY      -0.108900
     20 C18         -0.4920    -2.7780    -1.3130 ca         1 NRY      -0.166000
     21 C19         -0.7970    -1.4430    -1.1100 ca         1 NRY      -0.062500
     22 C20         -3.1790     0.7850    -0.0350 cd         1 NRY      -0.178300
     23 C21         -4.3200     0.1330    -0.4950 cc         1 NRY      -0.058000
     24 N24         -3.5190     2.1270     0.1750 na         1 NRY       0.055700
     25 H1          -0.5510     3.2220     1.2040 h4         1 NRY       0.204000
     26 H2          -2.8540     4.0410     0.7510 h4         1 NRY       0.207000
     27 H3          -6.3490     0.9250    -0.8640 ha         1 NRY       0.192000
     28 H4          -5.2770     3.2740    -0.0460 h4         1 NRY       0.203000
     29 H5          -1.9880    -4.0990     1.4400 ha         1 NRY       0.177500
     30 H6          -2.5410    -1.7130     1.7910 ha         1 NRY       0.156500
     31 H7           5.6220     0.9830    -1.8070 ha         1 NRY       0.171000
     32 H8           3.2130     1.4700    -2.0250 ha         1 NRY       0.145000
     33 H9           4.9840    -0.4050     2.1970 ha         1 NRY       0.171000
     34 H10          2.5940     0.0740     1.9990 ha         1 NRY       0.145000
     35 H11          0.4130    -0.1920     1.2810 h1         1 NRY       0.111200
     36 H12          0.7030     1.4330     1.8540 h1         1 NRY       0.111200
     37 H13          0.0680    -3.0910    -2.1830 ha         1 NRY       0.177500
     38 H14         -0.4790    -0.7110    -1.8400 ha         1 NRY       0.156500
     39 H15         -4.3890    -0.9110    -0.7540 ha         1 NRY       0.189000
     40 C10          0.3770     0.8560     0.9880 c3         1 NRY      -0.105700
     41 F07          6.7180     0.0070     0.3220 f          1 NRY      -0.113900
@<TRIPOS>BOND
     1     1     2 2   
     2     1    18 1   
     3     1    25 1   
     4     2    24 1   
     5     2    26 1   
     6     3     4 2   
     7     3    23 1   
     8     3    27 1   
     9     4    24 1   
    10     4    28 1   
    11     5     6 ar  
    12     5     9 ar  
    13     5    29 1   
    14     6     7 ar  
    15     6    30 1   
    16     7     8 1   
    17     7    21 ar  
    18     8    18 2   
    19     8    22 1   
    20     9    19 1   
    21     9    20 ar  
    22    10    11 ar  
    23    10    16 ar  
    24    10    41 1   
    25    11    14 ar  
    26    11    31 1   
    27    12    13 1   
    28    12    15 2   
    29    12    40 1   
    30    13    14 ar  
    31    13    17 ar  
    32    14    32 1   
    33    16    17 ar  
    34    16    33 1   
    35    17    34 1   
    36    18    40 1   
    37    20    21 ar  
    38    20    37 1   
    39    21    38 1   
    40    22    23 2   
    41    22    24 1   
    42    23    39 1   
    43    35    40 1   
    44    36    40 1   
@<TRIPOS>SUBSTRUCTURE
     1 NRY         1 TEMP              0 ****  ****    0 ROOT
