@<TRIPOS>MOLECULE
NRZ
   51    53     1     0     0
SMALL
No Charge or Current Charge


@<TRIPOS>ATOM
      1 C1          -7.8060     0.8990    -0.4680 c3         1 NRZ       0.145900
      2 C10          0.3220    -3.1040     1.2140 c5         1 NRZ      -0.075400
      3 C11          0.5520    -1.5580     1.0960 c5         1 NRZ       0.136500
      4 C12          1.5780    -1.2380    -0.0570 c          1 NRZ       0.619100
      5 C13          3.7410     0.1530    -0.1160 ca         1 NRZ      -0.007000
      6 C14          4.0360     0.0910    -1.4960 ca         1 NRZ      -0.151000
      7 C15          5.1990     0.6970    -2.0070 ca         1 NRZ      -0.046300
      8 C16          6.0710     1.3730    -1.1370 ca         1 NRZ      -0.137000
      9 C17          5.7900     1.4440     0.2390 ca         1 NRZ      -0.046300
     10 C18          4.6250     0.8360     0.7390 ca         1 NRZ      -0.151000
     11 C19          6.7340     2.1820     1.1770 c3         1 NRZ      -0.047800
     12 C2          -5.6540     0.9880     0.7360 ca         1 NRZ       0.198100
     13 C20          5.5040     0.6290    -3.4960 c3         1 NRZ      -0.047800
     14 C3          -4.9910     1.1860     1.9560 ca         1 NRZ      -0.199500
     15 C4          -3.5910     1.0990     2.0320 ca         1 NRZ       0.022500
     16 C5          -2.8460     0.8120     0.8720 ca         1 NRZ      -0.357500
     17 C6          -3.5050     0.6090    -0.3560 ca         1 NRZ       0.022500
     18 C7          -4.9050     0.6970    -0.4240 ca         1 NRZ      -0.199500
     19 C8          -1.7130    -1.8990     1.6550 c5         1 NRZ       0.217800
     20 C9          -1.2210    -3.2590     1.1200 c5         1 NRZ      -0.096400
     21 N1          -0.8230    -1.0030     0.9000 n3         1 NRZ      -0.734500
     22 N2           2.5840    -0.4320     0.4670 ns         1 NRZ      -0.135000
     23 O1          -7.0300     1.0860     0.7290 os         1 NRZ      -0.334100
     24 O2          -0.5090     1.1940    -0.3080 o          1 NRZ      -0.531000
     25 O3          -0.5780     1.1340     2.2600 o          1 NRZ      -0.531000
     26 O4           1.5290    -1.6450    -1.2160 o          1 NRZ      -0.549100
     27 S1          -1.0550     0.6780     0.9510 sy         1 NRZ       1.180600
     28 H2          -7.5290     1.6360    -1.2320 h1         1 NRZ       0.047033
     29 H1          -7.6550    -0.1080    -0.8780 h1         1 NRZ       0.047033
     30 H3          -8.8750     1.0200    -0.2510 h1         1 NRZ       0.047033
     31 H12          0.8310    -3.6810     0.4330 hc         1 NRZ       0.068700
     32 H13          0.7000    -3.4740     2.1750 hc         1 NRZ       0.068700
     33 H14          0.9660    -1.1910     2.0470 h1         1 NRZ       0.042700
     34 H16          3.3720    -0.4140    -2.1890 ha         1 NRZ       0.124500
     35 H17          6.9680     1.8470    -1.5300 ha         1 NRZ       0.111000
     36 H18          4.4060     0.8960     1.8030 ha         1 NRZ       0.124500
     37 H19          6.4340     3.2310     1.2850 hc         1 NRZ       0.042533
     38 H20          6.7380     1.7290     2.1760 hc         1 NRZ       0.042533
     39 H21          7.7650     2.1630     0.8040 hc         1 NRZ       0.042533
     40 H23          5.0070     1.4450    -4.0330 hc         1 NRZ       0.042533
     41 H24          6.5800     0.7070    -3.6890 hc         1 NRZ       0.042533
     42 H22          5.1600    -0.3170    -3.9310 hc         1 NRZ       0.042533
     43 H4          -5.5670     1.4070     2.8510 ha         1 NRZ       0.127500
     44 H5          -3.0960     1.2520     2.9910 ha         1 NRZ       0.133000
     45 H6          -2.9360     0.3770    -1.2560 ha         1 NRZ       0.133000
     46 H7          -5.3890     0.5360    -1.3830 ha         1 NRZ       0.127500
     47 H8          -2.7770    -1.7440     1.4300 h1         1 NRZ       0.061200
     48 H9          -1.5690    -1.8030     2.7410 h1         1 NRZ       0.061200
     49 H11         -1.5440    -3.4090     0.0820 hc         1 NRZ       0.054700
     50 H10         -1.5990    -4.1040     1.7070 hc         1 NRZ       0.054700
     51 H15          2.4710    -0.2120     1.4480 hn         1 NRZ       0.143000
@<TRIPOS>BOND
     1     1    23 1   
     2     1    28 1   
     3     1    29 1   
     4     1    30 1   
     5     2     3 1   
     6     2    20 1   
     7     2    31 1   
     8     2    32 1   
     9     3     4 1   
    10     3    21 1   
    11     3    33 1   
    12     4    22 1   
    13     4    26 2   
    14     5     6 ar  
    15     5    10 ar  
    16     5    22 1   
    17     6     7 ar  
    18     6    34 1   
    19     7     8 ar  
    20     7    13 1   
    21     8     9 ar  
    22     8    35 1   
    23     9    10 ar  
    24     9    11 1   
    25    10    36 1   
    26    11    37 1   
    27    11    38 1   
    28    11    39 1   
    29    12    14 ar  
    30    12    18 ar  
    31    12    23 1   
    32    13    40 1   
    33    13    41 1   
    34    13    42 1   
    35    14    15 ar  
    36    14    43 1   
    37    15    16 ar  
    38    15    44 1   
    39    16    17 ar  
    40    16    27 1   
    41    17    18 ar  
    42    17    45 1   
    43    18    46 1   
    44    19    20 1   
    45    19    21 1   
    46    19    47 1   
    47    19    48 1   
    48    20    49 1   
    49    20    50 1   
    50    21    27 1   
    51    22    51 1   
    52    24    27 2   
    53    25    27 2   
@<TRIPOS>SUBSTRUCTURE
     1 NRZ         1 TEMP              0 ****  ****    0 ROOT
