@<TRIPOS>MOLECULE
NRZ
   51    53     1     0     0
SMALL
bcc


@<TRIPOS>ATOM
      1 C1          -6.6150     1.5530     2.5100 c3         1 NRZ       0.122700
      2 C10          0.0060    -3.0630     0.3790 c5         1 NRZ      -0.075400
      3 C11          0.0180    -1.5900    -0.0360 c5         1 NRZ       0.136500
      4 C12          1.3790    -1.1610    -0.5720 c          1 NRZ       0.686100
      5 C13          3.3130     0.2460     0.1160 ca         1 NRZ       0.085600
      6 C14          4.2400    -0.1390    -0.8480 ca         1 NRZ      -0.169000
      7 C15          5.4860     0.4850    -0.9020 ca         1 NRZ      -0.046300
      8 C16          5.7930     1.4890     0.0060 ca         1 NRZ      -0.155000
      9 C17          4.8740     1.8880     0.9750 ca         1 NRZ      -0.046300
     10 C18          3.6400     1.2580     1.0220 ca         1 NRZ      -0.169000
     11 C19          5.2000     2.9980     1.9320 c3         1 NRZ      -0.047800
     12 C2          -4.4470     1.3440     1.5710 ca         1 NRZ       0.198100
     13 C20          6.4750     0.0680    -1.9530 c3         1 NRZ      -0.047800
     14 C3          -3.0800     1.6250     1.6770 ca         1 NRZ      -0.217500
     15 C4          -2.2040     1.2020     0.7020 ca         1 NRZ       0.004500
     16 C5          -2.6820     0.4840    -0.3950 ca         1 NRZ      -0.357500
     17 C6          -4.0370     0.2100    -0.5120 ca         1 NRZ       0.004500
     18 C7          -4.9210     0.6350     0.4670 ca         1 NRZ      -0.217500
     19 C8          -1.9010    -2.7140    -1.0240 c5         1 NRZ       0.217800
     20 C9          -1.4640    -3.4360     0.2450 c5         1 NRZ      -0.096400
     21 N1          -0.9920    -1.5560    -1.0880 n3         1 NRZ      -0.734500
     22 N2           2.0460    -0.3320     0.2620 ns         1 NRZ      -0.461100
     23 O1          -5.2200     1.7960     2.5620 os         1 NRZ      -0.310900
     24 O2          -2.2930    -0.3570    -2.8330 o          1 NRZ      -0.601800
     25 O3          -0.4020     0.7890    -1.6150 o          1 NRZ      -0.601800
     26 O4           1.8090    -1.5900    -1.6240 o          1 NRZ      -0.549100
     27 S1          -1.5500    -0.1050    -1.6100 sy         1 NRZ       1.322200
     28 H2          -7.0740     2.0130     1.6320 h1         1 NRZ       0.047033
     29 H1          -6.8400     0.4840     2.5120 h1         1 NRZ       0.047033
     30 H3          -7.0370     2.0030     3.4050 h1         1 NRZ       0.047033
     31 H12          0.6140    -3.6500    -0.3120 hc         1 NRZ       0.068700
     32 H13          0.3990    -3.2000     1.3850 hc         1 NRZ       0.068700
     33 H14         -0.2800    -0.9830     0.8300 h1         1 NRZ       0.042700
     34 H16          4.0150    -0.9230    -1.5530 ha         1 NRZ       0.142500
     35 H17          6.7660     1.9660    -0.0340 ha         1 NRZ       0.129000
     36 H18          2.9170     1.5560     1.7740 ha         1 NRZ       0.142500
     37 H19          4.9220     3.9660     1.5110 hc         1 NRZ       0.042533
     38 H20          4.6630     2.8880     2.8740 hc         1 NRZ       0.042533
     39 H21          6.2670     3.0350     2.1510 hc         1 NRZ       0.042533
     40 H23          6.1720     0.4270    -2.9380 hc         1 NRZ       0.042533
     41 H24          7.4680     0.4640    -1.7480 hc         1 NRZ       0.042533
     42 H22          6.5520    -1.0180    -2.0180 hc         1 NRZ       0.042533
     43 H4          -2.7150     2.1850     2.5280 ha         1 NRZ       0.145500
     44 H5          -1.1550     1.4510     0.7930 ha         1 NRZ       0.151000
     45 H6          -4.4260    -0.3200    -1.3710 ha         1 NRZ       0.151000
     46 H7          -5.9720     0.4120     0.3440 ha         1 NRZ       0.145500
     47 H8          -1.7700    -3.3330    -1.9110 h1         1 NRZ       0.061200
     48 H9          -2.9490    -2.4140    -0.9750 h1         1 NRZ       0.061200
     49 H11         -1.6240    -4.5110     0.1810 hc         1 NRZ       0.054700
     50 H10         -2.0260    -3.0630     1.1040 hc         1 NRZ       0.054700
     51 H15          1.5410    -0.0270     1.0800 hn         1 NRZ       0.309500
@<TRIPOS>BOND
     1     1    23 1   
     2     1    28 1   
     3     1    29 1   
     4     1    30 1   
     5     2     3 1   
     6     2    20 1   
     7     2    31 1   
     8     2    32 1   
     9     3     4 1   
    10     3    21 1   
    11     3    33 1   
    12     4    22 1   
    13     4    26 2   
    14     5     6 ar  
    15     5    10 ar  
    16     5    22 1   
    17     6     7 ar  
    18     6    34 1   
    19     7     8 ar  
    20     7    13 1   
    21     8     9 ar  
    22     8    35 1   
    23     9    10 ar  
    24     9    11 1   
    25    10    36 1   
    26    11    37 1   
    27    11    38 1   
    28    11    39 1   
    29    12    14 ar  
    30    12    18 ar  
    31    12    23 1   
    32    13    40 1   
    33    13    41 1   
    34    13    42 1   
    35    14    15 ar  
    36    14    43 1   
    37    15    16 ar  
    38    15    44 1   
    39    16    17 ar  
    40    16    27 1   
    41    17    18 ar  
    42    17    45 1   
    43    18    46 1   
    44    19    20 1   
    45    19    21 1   
    46    19    47 1   
    47    19    48 1   
    48    20    49 1   
    49    20    50 1   
    50    21    27 1   
    51    22    51 1   
    52    24    27 2   
    53    25    27 2   
@<TRIPOS>SUBSTRUCTURE
     1 NRZ         1 TEMP              0 ****  ****    0 ROOT
