@<TRIPOS>MOLECULE
NS0
  100    99     1     0     0
SMALL
No Charge or Current Charge


@<TRIPOS>ATOM
      1 C39        -14.9500    -3.5570    -1.2270 c3         1 NS0      -0.087600
      2 C38        -15.6720    -2.2400    -0.8510 c3         1 NS0      -0.059700
      3 C40        -17.1960    -2.4690    -0.7290 c3         1 NS0      -0.087600
      4 C37        -15.1060    -1.5830     0.4380 c3         1 NS0      -0.073400
      5 C36        -13.6200    -1.1570     0.3510 c3         1 NS0      -0.072400
      6 C35        -13.1320    -0.4120     1.6150 c3         1 NS0      -0.041200
      7 C33        -11.6900     0.0640     1.5060 c2         1 NS0      -0.108400
      8 C34        -10.6740    -1.0460     1.7530 c3         1 NS0      -0.055900
      9 C32        -11.3830     1.3470     1.2340 c2         1 NS0      -0.224200
     10 C31        -10.0010     1.9670     1.1320 c3         1 NS0      -0.036200
     11 C30         -9.4000     1.8240    -0.2830 c3         1 NS0      -0.041200
     12 C28         -7.9920     2.3930    -0.3860 c2         1 NS0      -0.094400
     13 C29         -7.9610     3.9160    -0.4300 c3         1 NS0      -0.056900
     14 C27         -6.8930     1.6020    -0.3970 ce         1 NS0      -0.193000
     15 C26         -5.5010     2.0710    -0.4540 ce         1 NS0      -0.165000
     16 C25         -4.4200     1.2400    -0.4900 cf         1 NS0      -0.182000
     17 C23         -3.0050     1.6220    -0.5350 cf         1 NS0      -0.059200
     18 C24         -2.6750     3.0660    -0.9030 c3         1 NS0      -0.055900
     19 C22         -2.0390     0.6810    -0.3100 ce         1 NS0      -0.180000
     20 C21         -0.5810     0.8800    -0.3140 ce         1 NS0      -0.169000
     21 C20          0.3240    -0.1200    -0.1410 cf         1 NS0      -0.173000
     22 C19          1.7730     0.0750    -0.1450 cf         1 NS0      -0.176000
     23 C17          2.7370    -0.8670     0.0790 ce         1 NS0      -0.063200
     24 C18          2.4140    -2.3130     0.4480 c3         1 NS0      -0.055900
     25 C16          4.1630    -0.4830     0.0360 ce         1 NS0      -0.176000
     26 C15          5.2420    -1.3160     0.0020 cf         1 NS0      -0.170000
     27 C14          6.6270    -0.8530    -0.0570 cf         1 NS0      -0.181000
     28 C12          7.7590    -1.6180    -0.0350 ce         1 NS0      -0.060200
     29 C13          7.7300    -3.1360     0.1290 c3         1 NS0      -0.055900
     30 C11          9.0850    -0.9700    -0.1040 ce         1 NS0      -0.181000
     31 C10         10.2880    -1.5730    -0.3280 cf         1 NS0      -0.165000
     32 C9          11.5580    -0.8550    -0.3930 cf         1 NS0      -0.193000
     33 C7          12.7800    -1.4120    -0.5780 c2         1 NS0      -0.094400
     34 C8          13.0360    -2.9050    -0.7380 c3         1 NS0      -0.057900
     35 C           14.0450    -0.5710    -0.6620 c3         1 NS0      -0.041200
     36 CA          14.7640    -0.4430     0.6970 c3         1 NS0      -0.035200
     37 CB          16.0050     0.4270     0.6110 c2         1 NS0      -0.226200
     38 CG          16.0810     1.7640     0.7560 c2         1 NS0      -0.110400
     39 CD2         14.9010     2.6910     1.0110 c3         1 NS0      -0.056400
     40 CD1         17.3960     2.5170     0.6740 c3         1 NS0      -0.056400
     41 H1         -15.4120    -4.0120    -2.1110 hc         1 NS0       0.031533
     42 H2         -13.8950    -3.3780    -1.4640 hc         1 NS0       0.031533
     43 H3         -15.0030    -4.2800    -0.4040 hc         1 NS0       0.031533
     44 H4         -15.5200    -1.5350    -1.6780 hc         1 NS0       0.044700
     45 H5         -17.4220    -3.1710     0.0840 hc         1 NS0       0.031533
     46 H6         -17.7160    -1.5260    -0.5220 hc         1 NS0       0.031533
     47 H7         -17.6030    -2.8800    -1.6600 hc         1 NS0       0.031533
     48 H8         -15.7060    -0.6950     0.6700 hc         1 NS0       0.037200
     49 H9         -15.2320    -2.2740     1.2820 hc         1 NS0       0.037200
     50 H10        -12.9940    -2.0420     0.1960 hc         1 NS0       0.040700
     51 H11        -13.4810    -0.5070    -0.5210 hc         1 NS0       0.040700
     52 H12        -13.7930     0.4480     1.7790 hc         1 NS0       0.042700
     53 H13        -13.2570    -1.0570     2.4940 hc         1 NS0       0.042700
     54 H15        -10.7900    -1.4670     2.7590 hc         1 NS0       0.039033
     55 H16        -10.7970    -1.8650     1.0350 hc         1 NS0       0.039033
     56 H17         -9.6380    -0.7030     1.6630 hc         1 NS0       0.039033
     57 H18        -12.1870     2.0680     1.0730 ha         1 NS0       0.165000
     58 H20        -10.0560     3.0300     1.3970 hc         1 NS0       0.045200
     59 H21         -9.3170     1.5150     1.8600 hc         1 NS0       0.045200
     60 H22         -9.3930     0.7590    -0.5490 hc         1 NS0       0.047700
     61 H23         -7.7310     4.3300     0.5590 hc         1 NS0       0.041367
     62 H24         -7.2060     4.2840    -1.1340 hc         1 NS0       0.041367
     63 H25         -8.9210     4.3400    -0.7500 hc         1 NS0       0.041367
     64 H26         -7.0230     0.5190    -0.3510 ha         1 NS0       0.169000
     65 H28         -5.3400     3.1490    -0.4460 ha         1 NS0       0.172000
     66 H30         -4.6220     0.1670    -0.4640 ha         1 NS0       0.169000
     67 H32         -2.6150     3.6980    -0.0090 hc         1 NS0       0.042367
     68 H33         -1.7230     3.1510    -1.4390 hc         1 NS0       0.042367
     69 H34         -3.4250     3.5010    -1.5730 hc         1 NS0       0.042367
     70 H35         -2.3690    -0.3350    -0.0860 ha         1 NS0       0.169000
     71 H36         -0.2040     1.8940    -0.4530 ha         1 NS0       0.171000
     72 H38         -0.0570    -1.1330    -0.0030 ha         1 NS0       0.172000
     73 H40          2.1080     1.0900    -0.3680 ha         1 NS0       0.169000
     74 H42          2.3710    -2.9480    -0.4440 hc         1 NS0       0.042367
     75 H43          3.1590    -2.7390     1.1300 hc         1 NS0       0.042367
     76 H44          1.4560    -2.4050     0.9710 hc         1 NS0       0.042367
     77 H45          4.3610     0.5900     0.0100 ha         1 NS0       0.170000
     78 H46          5.0720    -2.3930    -0.0080 ha         1 NS0       0.173000
     79 H48          6.7570     0.2280    -0.1420 ha         1 NS0       0.169000
     80 H51          7.7170    -3.6380    -0.8450 hc         1 NS0       0.041700
     81 H52          8.5980    -3.5060     0.6860 hc         1 NS0       0.041700
     82 H53          6.8560    -3.4770     0.6930 hc         1 NS0       0.041700
     83 H54          9.0870     0.1140     0.0230 ha         1 NS0       0.170000
     84 H56         10.3150    -2.6500    -0.4900 ha         1 NS0       0.172000
     85 H58         11.4990     0.2310    -0.2870 ha         1 NS0       0.169000
     86 H61         12.8610    -3.2220    -1.7730 hc         1 NS0       0.041367
     87 H62         14.0670    -3.1750    -0.4800 hc         1 NS0       0.041367
     88 H63         12.3850    -3.5010    -0.0880 hc         1 NS0       0.041367
     89 H64         14.7390    -0.9900    -1.4020 hc         1 NS0       0.047700
     90 H65         13.8000     0.4360    -1.0220 hc         1 NS0       0.047700
     91 H66         14.0600    -0.0450     1.4380 hc         1 NS0       0.046200
     92 H67         15.0400    -1.4410     1.0580 hc         1 NS0       0.046200
     93 H68         16.9160    -0.1450     0.4260 ha         1 NS0       0.164000
     94 H71         15.0020     3.1960     1.9790 hc         1 NS0       0.038867
     95 H72         14.8400     3.4660     0.2380 hc         1 NS0       0.038867
     96 H73         13.9390     2.1680     1.0140 hc         1 NS0       0.038867
     97 H74         18.2420     1.8420     0.4930 hc         1 NS0       0.038867
     98 H75         17.3820     3.2510    -0.1410 hc         1 NS0       0.038867
     99 H76         17.6020     3.0560     1.6070 hc         1 NS0       0.038867
    100 H14        -10.0650     2.3050    -1.0100 hc         1 NS0       0.047700
@<TRIPOS>BOND
     1     1     2 1   
     2     1    41 1   
     3     1    42 1   
     4     1    43 1   
     5     2     3 1   
     6     2     4 1   
     7     2    44 1   
     8     3    45 1   
     9     3    46 1   
    10     3    47 1   
    11     4     5 1   
    12     4    48 1   
    13     4    49 1   
    14     5     6 1   
    15     5    50 1   
    16     5    51 1   
    17     6     7 1   
    18     6    52 1   
    19     6    53 1   
    20     7     8 1   
    21     7     9 2   
    22     8    54 1   
    23     8    55 1   
    24     8    56 1   
    25     9    10 1   
    26     9    57 1   
    27    10    11 1   
    28    10    58 1   
    29    10    59 1   
    30    11    12 1   
    31    11    60 1   
    32    11   100 1   
    33    12    13 1   
    34    12    14 2   
    35    13    61 1   
    36    13    62 1   
    37    13    63 1   
    38    14    15 1   
    39    14    64 1   
    40    15    16 2   
    41    15    65 1   
    42    16    17 1   
    43    16    66 1   
    44    17    18 1   
    45    17    19 2   
    46    18    67 1   
    47    18    68 1   
    48    18    69 1   
    49    19    20 1   
    50    19    70 1   
    51    20    21 2   
    52    20    71 1   
    53    21    22 1   
    54    21    72 1   
    55    22    23 2   
    56    22    73 1   
    57    23    24 1   
    58    23    25 1   
    59    24    74 1   
    60    24    75 1   
    61    24    76 1   
    62    25    26 2   
    63    25    77 1   
    64    26    27 1   
    65    26    78 1   
    66    27    28 2   
    67    27    79 1   
    68    28    29 1   
    69    28    30 1   
    70    29    80 1   
    71    29    81 1   
    72    29    82 1   
    73    30    31 2   
    74    30    83 1   
    75    31    32 1   
    76    31    84 1   
    77    32    33 2   
    78    32    85 1   
    79    33    34 1   
    80    33    35 1   
    81    34    86 1   
    82    34    87 1   
    83    34    88 1   
    84    35    36 1   
    85    35    89 1   
    86    35    90 1   
    87    36    37 1   
    88    36    91 1   
    89    36    92 1   
    90    37    38 2   
    91    37    93 1   
    92    38    39 1   
    93    38    40 1   
    94    39    94 1   
    95    39    95 1   
    96    39    96 1   
    97    40    97 1   
    98    40    98 1   
    99    40    99 1   
@<TRIPOS>SUBSTRUCTURE
     1 NS0         1 TEMP              0 ****  ****    0 ROOT
