@<TRIPOS>MOLECULE
NS0
  100    99     1     0     0
SMALL
bcc


@<TRIPOS>ATOM
      1 C39        -14.2980    -4.0950     0.0140 c3         1 NS0      -0.087600
      2 C38        -15.0710    -2.8080    -0.2620 c3         1 NS0      -0.059700
      3 C40        -16.5730    -3.0750    -0.2260 c3         1 NS0      -0.087600
      4 C37        -14.7090    -1.6910     0.7180 c3         1 NS0      -0.073400
      5 C36        -13.2530    -1.2430     0.6710 c3         1 NS0      -0.072400
      6 C35        -12.9880    -0.0500     1.5910 c3         1 NS0      -0.041200
      7 C33        -11.5570     0.4170     1.5770 c2         1 NS0      -0.108400
      8 C34        -10.5570    -0.5500     2.1400 c3         1 NS0      -0.055900
      9 C32        -11.2360     1.6090     1.0670 c2         1 NS0      -0.174200
     10 C31         -9.8670     2.2000     0.9340 c3         1 NS0      -0.036200
     11 C30         -9.2660     1.9390    -0.4600 c3         1 NS0      -0.041200
     12 C28         -7.9190     2.5800    -0.6390 c2         1 NS0      -0.094400
     13 C29         -7.9260     4.0720    -0.7680 c3         1 NS0      -0.056900
     14 C27         -6.8080     1.8190    -0.6410 ce         1 NS0      -0.143000
     15 C26         -5.4430     2.2760    -0.7520 ce         1 NS0      -0.115000
     16 C25         -4.3860     1.4370    -0.7140 cf         1 NS0      -0.132000
     17 C23         -2.9940     1.8230    -0.8030 cf         1 NS0      -0.059200
     18 C24         -2.6710     3.2780    -0.9640 c3         1 NS0      -0.055900
     19 C22         -2.0540     0.8450    -0.7290 ce         1 NS0      -0.130000
     20 C21         -0.6300     1.0010    -0.7710 ce         1 NS0      -0.119000
     21 C20          0.2290    -0.0450    -0.6960 cf         1 NS0      -0.123000
     22 C19          1.6520     0.1110    -0.7200 cf         1 NS0      -0.126000
     23 C17          2.5920    -0.8700    -0.6680 ce         1 NS0      -0.063200
     24 C18          2.2640    -2.3320    -0.5920 c3         1 NS0      -0.055900
     25 C16          3.9820    -0.4790    -0.6890 ce         1 NS0      -0.126000
     26 C15          5.0410    -1.3200    -0.6670 cf         1 NS0      -0.120000
     27 C14          6.3990    -0.8530    -0.6640 cf         1 NS0      -0.131000
     28 C12          7.5280    -1.6080    -0.6670 ce         1 NS0      -0.060200
     29 C13          7.5240    -3.1070    -0.7020 c3         1 NS0      -0.055900
     30 C11          8.8060    -0.9280    -0.6300 ce         1 NS0      -0.131000
     31 C10         10.0150    -1.5260    -0.6370 cf         1 NS0      -0.115000
     32 C9          11.2570    -0.7900    -0.5650 cf         1 NS0      -0.143000
     33 C7          12.5010    -1.3010    -0.6060 c2         1 NS0      -0.094400
     34 C8          12.8150    -2.7540    -0.7880 c3         1 NS0      -0.057900
     35 C           13.6940    -0.4000    -0.4600 c3         1 NS0      -0.041200
     36 CA          14.3110    -0.4680     0.9480 c3         1 NS0      -0.035200
     37 CB          15.5870     0.3100     1.0260 c2         1 NS0      -0.176200
     38 CG          15.8130     1.4610     1.6650 c2         1 NS0      -0.110400
     39 CD2         14.7920     2.2050     2.4730 c3         1 NS0      -0.056400
     40 CD1         17.1590     2.1240     1.6090 c3         1 NS0      -0.056400
     41 H1         -14.5910    -4.8840    -0.6800 hc         1 NS0       0.031533
     42 H2         -13.2210    -3.9590    -0.0840 hc         1 NS0       0.031533
     43 H3         -14.4970    -4.4570     1.0270 hc         1 NS0       0.031533
     44 H4         -14.8120    -2.4660    -1.2710 hc         1 NS0       0.044700
     45 H5         -16.8830    -3.4140     0.7650 hc         1 NS0       0.031533
     46 H6         -17.1440    -2.1750    -0.4620 hc         1 NS0       0.031533
     47 H7         -16.8580    -3.8470    -0.9430 hc         1 NS0       0.031533
     48 H8         -15.3500    -0.8260     0.5130 hc         1 NS0       0.037200
     49 H9         -14.9550    -2.0140     1.7370 hc         1 NS0       0.037200
     50 H10        -12.6000    -2.0740     0.9500 hc         1 NS0       0.040700
     51 H11        -12.9830    -0.9710    -0.3550 hc         1 NS0       0.040700
     52 H12        -13.6470     0.7760     1.3060 hc         1 NS0       0.042700
     53 H13        -13.2650    -0.3320     2.6150 hc         1 NS0       0.042700
     54 H15        -10.9000    -0.9490     3.0990 hc         1 NS0       0.039033
     55 H16        -10.4260    -1.4070     1.4760 hc         1 NS0       0.039033
     56 H17         -9.5740    -0.1100     2.2960 hc         1 NS0       0.039033
     57 H18        -12.0440     2.2150     0.6610 ha         1 NS0       0.115000
     58 H20         -9.9240     3.2780     1.1090 hc         1 NS0       0.045200
     59 H21         -9.1830     1.8020     1.6850 hc         1 NS0       0.045200
     60 H22         -9.1930     0.8590    -0.6090 hc         1 NS0       0.047700
     61 H23         -8.2380     4.5460     0.1670 hc         1 NS0       0.041367
     62 H24         -6.9610     4.4940    -1.0400 hc         1 NS0       0.041367
     63 H25         -8.6500     4.3810    -1.5250 hc         1 NS0       0.041367
     64 H26         -6.9370     0.7440    -0.5390 ha         1 NS0       0.119000
     65 H28         -5.2700     3.3400    -0.8650 ha         1 NS0       0.122000
     66 H30         -4.5790     0.3730    -0.5960 ha         1 NS0       0.119000
     67 H32         -3.0130     3.8520    -0.1010 hc         1 NS0       0.042367
     68 H33         -1.6070     3.4640    -1.0840 hc         1 NS0       0.042367
     69 H34         -3.1760     3.6930    -1.8390 hc         1 NS0       0.042367
     70 H35         -2.4100    -0.1760    -0.6160 ha         1 NS0       0.119000
     71 H36         -0.2150     2.0000    -0.8630 ha         1 NS0       0.121000
     72 H38         -0.1870    -1.0430    -0.6090 ha         1 NS0       0.122000
     73 H40          2.0110     1.1360    -0.7840 ha         1 NS0       0.119000
     74 H42          2.6430    -2.8640    -1.4670 hc         1 NS0       0.042367
     75 H43          2.7280    -2.7910     0.2840 hc         1 NS0       0.042367
     76 H44          1.1950    -2.5210    -0.5320 hc         1 NS0       0.042367
     77 H45          4.1760     0.5910    -0.7230 ha         1 NS0       0.120000
     78 H46          4.8680    -2.3900    -0.6400 ha         1 NS0       0.123000
     79 H48          6.5230     0.2270    -0.6510 ha         1 NS0       0.119000
     80 H51          8.0550    -3.4760    -1.5830 hc         1 NS0       0.041700
     81 H52          8.0360    -3.5200     0.1700 hc         1 NS0       0.041700
     82 H53          6.5230    -3.5280    -0.7270 hc         1 NS0       0.041700
     83 H54          8.7690     0.1580    -0.5850 ha         1 NS0       0.120000
     84 H56         10.0690    -2.6070    -0.6910 ha         1 NS0       0.122000
     85 H58         11.1600     0.2880    -0.4620 ha         1 NS0       0.119000
     86 H61         13.2280    -2.9250    -1.7860 hc         1 NS0       0.041367
     87 H62         13.5780    -3.0840    -0.0810 hc         1 NS0       0.041367
     88 H63         11.9550    -3.4100    -0.6730 hc         1 NS0       0.041367
     89 H64         14.4580    -0.6750    -1.1950 hc         1 NS0       0.047700
     90 H65         13.4170     0.6360    -0.6680 hc         1 NS0       0.047700
     91 H66         13.5740    -0.1190     1.6730 hc         1 NS0       0.046200
     92 H67         14.5190    -1.5130     1.2020 hc         1 NS0       0.046200
     93 H68         16.4120    -0.1180     0.4600 ha         1 NS0       0.114000
     94 H71         15.1560     2.3750     3.4900 hc         1 NS0       0.038867
     95 H72         14.6120     3.1940     2.0420 hc         1 NS0       0.038867
     96 H73         13.8330     1.6960     2.5420 hc         1 NS0       0.038867
     97 H74         17.8670     1.5670     0.9960 hc         1 NS0       0.038867
     98 H75         17.0790     3.1350     1.2020 hc         1 NS0       0.038867
     99 H76         17.5860     2.2290     2.6100 hc         1 NS0       0.038867
    100 H14         -9.9580     2.3200    -1.2190 hc         1 NS0       0.047700
@<TRIPOS>BOND
     1     1     2 1   
     2     1    41 1   
     3     1    42 1   
     4     1    43 1   
     5     2     3 1   
     6     2     4 1   
     7     2    44 1   
     8     3    45 1   
     9     3    46 1   
    10     3    47 1   
    11     4     5 1   
    12     4    48 1   
    13     4    49 1   
    14     5     6 1   
    15     5    50 1   
    16     5    51 1   
    17     6     7 1   
    18     6    52 1   
    19     6    53 1   
    20     7     8 1   
    21     7     9 2   
    22     8    54 1   
    23     8    55 1   
    24     8    56 1   
    25     9    10 1   
    26     9    57 1   
    27    10    11 1   
    28    10    58 1   
    29    10    59 1   
    30    11    12 1   
    31    11    60 1   
    32    11   100 1   
    33    12    13 1   
    34    12    14 2   
    35    13    61 1   
    36    13    62 1   
    37    13    63 1   
    38    14    15 1   
    39    14    64 1   
    40    15    16 2   
    41    15    65 1   
    42    16    17 1   
    43    16    66 1   
    44    17    18 1   
    45    17    19 2   
    46    18    67 1   
    47    18    68 1   
    48    18    69 1   
    49    19    20 1   
    50    19    70 1   
    51    20    21 2   
    52    20    71 1   
    53    21    22 1   
    54    21    72 1   
    55    22    23 2   
    56    22    73 1   
    57    23    24 1   
    58    23    25 1   
    59    24    74 1   
    60    24    75 1   
    61    24    76 1   
    62    25    26 2   
    63    25    77 1   
    64    26    27 1   
    65    26    78 1   
    66    27    28 2   
    67    27    79 1   
    68    28    29 1   
    69    28    30 1   
    70    29    80 1   
    71    29    81 1   
    72    29    82 1   
    73    30    31 2   
    74    30    83 1   
    75    31    32 1   
    76    31    84 1   
    77    32    33 2   
    78    32    85 1   
    79    33    34 1   
    80    33    35 1   
    81    34    86 1   
    82    34    87 1   
    83    34    88 1   
    84    35    36 1   
    85    35    89 1   
    86    35    90 1   
    87    36    37 1   
    88    36    91 1   
    89    36    92 1   
    90    37    38 2   
    91    37    93 1   
    92    38    39 1   
    93    38    40 1   
    94    39    94 1   
    95    39    95 1   
    96    39    96 1   
    97    40    97 1   
    98    40    98 1   
    99    40    99 1   
@<TRIPOS>SUBSTRUCTURE
     1 NS0         1 TEMP              0 ****  ****    0 ROOT
