@<TRIPOS>MOLECULE
NS1
  100    99     1     0     0
SMALL
bcc


@<TRIPOS>ATOM
      1 C1           7.2810     7.1430    -0.9830 c3         1 NS1      -0.060700
      2 CM1          6.0530     7.4180    -0.1200 c3         1 NS1      -0.087100
      3 CM2          7.8910     8.4530    -1.4700 c3         1 NS1      -0.087100
      4 C2           8.3320     6.3080    -0.2470 c3         1 NS1      -0.073400
      5 C3           7.8720     4.9100     0.1490 c3         1 NS1      -0.072400
      6 C4           8.9820     4.1000     0.8250 c3         1 NS1      -0.041200
      7 C5           8.5530     2.7060     1.2040 c2         1 NS1      -0.108400
      8 C6           7.5030     2.6280     2.2750 c3         1 NS1      -0.054900
      9 C7           9.0900     1.6470     0.5940 c2         1 NS1      -0.175200
     10 C8           8.7640     0.1980     0.7840 c3         1 NS1      -0.035200
     11 C9           8.1570    -0.3980    -0.4980 c3         1 NS1      -0.042200
     12 C10          7.8990    -1.8760    -0.4140 c2         1 NS1      -0.093400
     13 C11          9.1200    -2.7410    -0.3790 c3         1 NS1      -0.057900
     14 C12          6.6340    -2.3380    -0.3850 ce         1 NS1      -0.142000
     15 C13          6.2190    -3.7200    -0.3340 ce         1 NS1      -0.115000
     16 C14          4.9240    -4.1000    -0.3130 cf         1 NS1      -0.129000
     17 C15          4.4660    -5.4730    -0.3040 cf         1 NS1      -0.060200
     18 C16          5.4940    -6.5680    -0.3350 c3         1 NS1      -0.056900
     19 C17          3.1470    -5.8040    -0.2810 ce         1 NS1      -0.130000
     20 C18          2.0220    -4.9160    -0.2210 ce         1 NS1      -0.119000
     21 C19          0.7390    -5.3490    -0.2390 cf         1 NS1      -0.124000
     22 C20         -0.3800    -4.4580    -0.1460 cf         1 NS1      -0.126000
     23 C21         -1.7010    -4.7770    -0.1830 ce         1 NS1      -0.063200
     24 C22         -2.2190    -6.1720    -0.3650 c3         1 NS1      -0.054900
     25 C23         -2.6560    -3.7040    -0.0330 ce         1 NS1      -0.126000
     26 C24         -4.0030    -3.8280    -0.0510 cf         1 NS1      -0.120000
     27 C25         -4.8710    -2.6990     0.1290 cf         1 NS1      -0.131000
     28 C26         -6.2290    -2.6840     0.1370 ce         1 NS1      -0.060200
     29 C27         -7.0750    -3.9050    -0.0630 c3         1 NS1      -0.054900
     30 C28         -6.8890    -1.4130     0.3500 ce         1 NS1      -0.131000
     31 C29         -8.2200    -1.2020     0.4030 cf         1 NS1      -0.115000
     32 C30         -8.7870     0.1080     0.6310 cf         1 NS1      -0.143000
     33 C31        -10.0910     0.4320     0.7030 c2         1 NS1      -0.094400
     34 C32        -11.2160    -0.5450     0.5560 c3         1 NS1      -0.056900
     35 C33        -10.4950     1.8600     0.9410 c3         1 NS1      -0.041200
     36 C34        -11.1230     2.5310    -0.2930 c3         1 NS1      -0.035200
     37 C35        -11.5550     3.9310     0.0120 c2         1 NS1      -0.176200
     38 C36        -11.0430     5.0710    -0.4600 c2         1 NS1      -0.110400
     39 CM3         -9.9110     5.1550    -1.4410 c3         1 NS1      -0.056400
     40 CM4        -11.5840     6.4020    -0.0250 c3         1 NS1      -0.056400
     41 H1           6.9580     6.5730    -1.8630 hc         1 NS1       0.043700
     42 HM11         5.5440     6.5020     0.1810 hc         1 NS1       0.031533
     43 HM12         6.3330     7.9560     0.7900 hc         1 NS1       0.031533
     44 HM13         5.3280     8.0330    -0.6550 hc         1 NS1       0.031533
     45 HM21         8.2500     9.0530    -0.6290 hc         1 NS1       0.031533
     46 HM22         8.7390     8.2770    -2.1340 hc         1 NS1       0.031533
     47 HM23         7.1610     9.0540    -2.0150 hc         1 NS1       0.031533
     48 H21          9.2180     6.2210    -0.8850 hc         1 NS1       0.036700
     49 H22          8.6550     6.8530     0.6480 hc         1 NS1       0.036700
     50 H31          7.0130     4.9780     0.8200 hc         1 NS1       0.040700
     51 H32          7.5270     4.3720    -0.7400 hc         1 NS1       0.040700
     52 H41          9.8450     4.0500     0.1550 hc         1 NS1       0.042700
     53 H42          9.3120     4.6390     1.7210 hc         1 NS1       0.042700
     54 H61          7.8150     3.1940     3.1560 hc         1 NS1       0.039367
     55 H62          6.5620     3.0700     1.9420 hc         1 NS1       0.039367
     56 H63          7.2900     1.6110     2.5950 hc         1 NS1       0.039367
     57 H7           9.8450     1.8370    -0.1670 ha         1 NS1       0.114000
     58 H81          9.6820    -0.3420     1.0370 hc         1 NS1       0.046700
     59 H82          8.0720     0.0410     1.6130 hc         1 NS1       0.046700
     60 H91          7.2290     0.1330    -0.7250 hc         1 NS1       0.047200
     61 H92          8.8440    -0.2040    -1.3300 hc         1 NS1       0.047200
     62 H111         9.7220    -2.5370     0.5100 hc         1 NS1       0.040700
     63 H112         8.9080    -3.8080    -0.3830 hc         1 NS1       0.040700
     64 H113         9.7610    -2.5290    -1.2380 hc         1 NS1       0.040700
     65 H12          5.8310    -1.6060    -0.4160 ha         1 NS1       0.120000
     66 H13          6.9900    -4.4790    -0.3240 ha         1 NS1       0.121000
     67 H14          4.1730    -3.3180    -0.3200 ha         1 NS1       0.122000
     68 H161         6.1580    -6.5170     0.5300 hc         1 NS1       0.041700
     69 H162         5.0230    -7.5500    -0.3340 hc         1 NS1       0.041700
     70 H163         6.1260    -6.5020    -1.2230 hc         1 NS1       0.041700
     71 H17          2.9030    -6.8630    -0.3040 ha         1 NS1       0.119000
     72 H18          2.1950    -3.8460    -0.1480 ha         1 NS1       0.121000
     73 H19          0.5590    -6.4160    -0.3200 ha         1 NS1       0.122000
     74 H20         -0.1290    -3.4070    -0.0220 ha         1 NS1       0.118000
     75 H221        -2.8230    -6.4790     0.4920 hc         1 NS1       0.042033
     76 H222        -2.8650    -6.2350    -1.2430 hc         1 NS1       0.042033
     77 H223        -1.4270    -6.9060    -0.4880 hc         1 NS1       0.042033
     78 H23         -2.2380    -2.7110     0.1160 ha         1 NS1       0.119000
     79 H24         -4.4440    -4.8060    -0.2040 ha         1 NS1       0.124000
     80 H25         -4.3680    -1.7470     0.2840 ha         1 NS1       0.118000
     81 H271        -7.7630    -4.0460     0.7730 hc         1 NS1       0.042033
     82 H272        -7.6870    -3.8130    -0.9630 hc         1 NS1       0.042033
     83 H273        -6.4880    -4.8140    -0.1580 hc         1 NS1       0.042033
     84 H28         -6.2320    -0.5560     0.4810 ha         1 NS1       0.119000
     85 H29         -8.8980    -2.0380     0.2740 ha         1 NS1       0.122000
     86 H30         -8.0650     0.9110     0.7570 ha         1 NS1       0.119000
     87 H321       -11.8990    -0.4660     1.4050 hc         1 NS1       0.041033
     88 H322       -11.8100    -0.3340    -0.3360 hc         1 NS1       0.041033
     89 H323       -10.8890    -1.5800     0.4880 hc         1 NS1       0.041033
     90 H331       -11.2140     1.9020     1.7670 hc         1 NS1       0.047200
     91 H332        -9.6260     2.4460     1.2490 hc         1 NS1       0.047200
     92 H341       -10.4090     2.4990    -1.1170 hc         1 NS1       0.046200
     93 H342       -11.9960     1.9550    -0.6170 hc         1 NS1       0.046200
     94 H351       -12.3690     4.0070     0.7300 ha         1 NS1       0.114000
     95 HM31       -10.2300     5.6660    -2.3530 hc         1 NS1       0.039033
     96 HM32        -9.0900     5.7470    -1.0300 hc         1 NS1       0.039033
     97 HM33        -9.5090     4.1850    -1.7260 hc         1 NS1       0.039033
     98 HM41       -12.3980     6.3000     0.6920 hc         1 NS1       0.039033
     99 HM42       -10.8010     7.0090     0.4370 hc         1 NS1       0.039033
    100 HM43       -11.9550     6.9740    -0.8790 hc         1 NS1       0.039033
@<TRIPOS>BOND
     1     1     2 1   
     2     1     3 1   
     3     1     4 1   
     4     1    41 1   
     5     2    42 1   
     6     2    43 1   
     7     2    44 1   
     8     3    45 1   
     9     3    46 1   
    10     3    47 1   
    11     4     5 1   
    12     4    48 1   
    13     4    49 1   
    14     5     6 1   
    15     5    50 1   
    16     5    51 1   
    17     6     7 1   
    18     6    52 1   
    19     6    53 1   
    20     7     8 1   
    21     7     9 2   
    22     8    54 1   
    23     8    55 1   
    24     8    56 1   
    25     9    10 1   
    26     9    57 1   
    27    10    11 1   
    28    10    58 1   
    29    10    59 1   
    30    11    12 1   
    31    11    60 1   
    32    11    61 1   
    33    12    13 1   
    34    12    14 2   
    35    13    62 1   
    36    13    63 1   
    37    13    64 1   
    38    14    15 1   
    39    14    65 1   
    40    15    16 2   
    41    15    66 1   
    42    16    17 1   
    43    16    67 1   
    44    17    18 1   
    45    17    19 2   
    46    18    68 1   
    47    18    69 1   
    48    18    70 1   
    49    19    20 1   
    50    19    71 1   
    51    20    21 2   
    52    20    72 1   
    53    21    22 1   
    54    21    73 1   
    55    22    23 2   
    56    22    74 1   
    57    23    24 1   
    58    23    25 1   
    59    24    75 1   
    60    24    76 1   
    61    24    77 1   
    62    25    26 2   
    63    25    78 1   
    64    26    27 1   
    65    26    79 1   
    66    27    28 2   
    67    27    80 1   
    68    28    29 1   
    69    28    30 1   
    70    29    81 1   
    71    29    82 1   
    72    29    83 1   
    73    30    31 2   
    74    30    84 1   
    75    31    32 1   
    76    31    85 1   
    77    32    33 2   
    78    32    86 1   
    79    33    34 1   
    80    33    35 1   
    81    34    87 1   
    82    34    88 1   
    83    34    89 1   
    84    35    36 1   
    85    35    90 1   
    86    35    91 1   
    87    36    37 1   
    88    36    92 1   
    89    36    93 1   
    90    37    38 2   
    91    37    94 1   
    92    38    39 1   
    93    38    40 1   
    94    39    95 1   
    95    39    96 1   
    96    39    97 1   
    97    40    98 1   
    98    40    99 1   
    99    40   100 1   
@<TRIPOS>SUBSTRUCTURE
     1 NS1         1 TEMP              0 ****  ****    0 ROOT
