@<TRIPOS>MOLECULE
NS1
  100    99     1     0     0
SMALL
No Charge or Current Charge


@<TRIPOS>ATOM
      1 C1           8.8150     7.2180    -0.9230 c3         1 NS1      -0.060700
      2 CM1          7.2950     7.4300    -1.1260 c3         1 NS1      -0.087100
      3 CM2          9.5480     8.5750    -0.8330 c3         1 NS1      -0.087100
      4 C2           9.1440     6.3270     0.3070 c3         1 NS1      -0.073400
      5 C3           8.5950     4.8820     0.2290 c3         1 NS1      -0.072400
      6 C4           9.0390     4.0030     1.4200 c3         1 NS1      -0.041200
      7 C5           8.5510     2.5640     1.3140 c2         1 NS1      -0.108400
      8 C6           7.0910     2.3970     1.7180 c3         1 NS1      -0.054900
      9 C7           9.3630     1.5670     0.9140 c2         1 NS1      -0.225200
     10 C8           9.0270     0.0910     0.7970 c3         1 NS1      -0.035200
     11 C9           8.4020    -0.2580    -0.5700 c3         1 NS1      -0.042200
     12 C10          8.0100    -1.7250    -0.6820 c2         1 NS1      -0.093400
     13 C11          9.2010    -2.6510    -0.8940 c3         1 NS1      -0.057900
     14 C12          6.7260    -2.1390    -0.5650 ce         1 NS1      -0.192000
     15 C13          6.2690    -3.5360    -0.6210 ce         1 NS1      -0.165000
     16 C14          4.9600    -3.9110    -0.5290 cf         1 NS1      -0.179000
     17 C15          4.4290    -5.2810    -0.5710 cf         1 NS1      -0.060200
     18 C16          5.4470    -6.4090    -0.6860 c3         1 NS1      -0.056900
     19 C17          3.0950    -5.5820    -0.5070 ce         1 NS1      -0.180000
     20 C18          1.9580    -4.6530    -0.3950 ce         1 NS1      -0.169000
     21 C19          0.6590    -5.0500    -0.3270 cf         1 NS1      -0.174000
     22 C20         -0.4730    -4.1330    -0.2100 cf         1 NS1      -0.176000
     23 C21         -1.8020    -4.4520    -0.1950 ce         1 NS1      -0.063200
     24 C22         -2.3140    -5.8800    -0.3750 c3         1 NS1      -0.054900
     25 C23         -2.8130    -3.3820    -0.0680 ce         1 NS1      -0.176000
     26 C24         -4.1440    -3.5300     0.1940 cf         1 NS1      -0.170000
     27 C25         -5.0790    -2.4130     0.3060 cf         1 NS1      -0.181000
     28 C26         -6.4060    -2.4700     0.6300 ce         1 NS1      -0.060200
     29 C27         -7.1120    -3.7710     1.0050 c3         1 NS1      -0.054900
     30 C28         -7.2000    -1.2260     0.6940 ce         1 NS1      -0.181000
     31 C29         -8.5580    -1.1160     0.7650 cf         1 NS1      -0.165000
     32 C30         -9.2700     0.1580     0.8130 cf         1 NS1      -0.193000
     33 C31        -10.6130     0.3160     0.9090 c2         1 NS1      -0.094400
     34 C32        -11.6120    -0.8320     0.9820 c3         1 NS1      -0.056900
     35 C33        -11.2680     1.6900     0.9090 c3         1 NS1      -0.041200
     36 C34        -11.9070     2.0480    -0.4500 c3         1 NS1      -0.035200
     37 C35        -12.5120     3.4400    -0.4520 c2         1 NS1      -0.226200
     38 C36        -11.8960     4.6010    -0.7480 c2         1 NS1      -0.110400
     39 CM3        -10.4280     4.7500    -1.1180 c3         1 NS1      -0.056400
     40 CM4        -12.6250     5.9320    -0.7410 c3         1 NS1      -0.056400
     41 H1           9.1960     6.7060    -1.8160 hc         1 NS1       0.043700
     42 HM11         6.7860     6.4840    -1.3420 hc         1 NS1       0.031533
     43 HM12         6.8390     7.8730    -0.2310 hc         1 NS1       0.031533
     44 HM13         7.1090     8.1030    -1.9720 hc         1 NS1       0.031533
     45 HM21         9.2120     9.1440     0.0420 hc         1 NS1       0.031533
     46 HM22        10.6320     8.4270    -0.7500 hc         1 NS1       0.031533
     47 HM23         9.3590     9.1790    -1.7290 hc         1 NS1       0.031533
     48 H21         10.2350     6.2750     0.4180 hc         1 NS1       0.036700
     49 H22          8.7610     6.8080     1.2150 hc         1 NS1       0.036700
     50 H31          7.5000     4.9090     0.1950 hc         1 NS1       0.040700
     51 H32          8.9350     4.4150    -0.7040 hc         1 NS1       0.040700
     52 H41         10.1350     4.0190     1.4650 hc         1 NS1       0.042700
     53 H42          8.6950     4.4550     2.3590 hc         1 NS1       0.042700
     54 H61          6.9350     2.7040     2.7590 hc         1 NS1       0.039367
     55 H62          6.4320     3.0070     1.0900 hc         1 NS1       0.039367
     56 H63          6.7400     1.3640     1.6300 hc         1 NS1       0.039367
     57 H7          10.3970     1.7920     0.6460 ha         1 NS1       0.164000
     58 H81          9.9370    -0.5050     0.9430 hc         1 NS1       0.046700
     59 H82          8.3410    -0.2180     1.5940 hc         1 NS1       0.046700
     60 H91          7.5190     0.3770    -0.7180 hc         1 NS1       0.047200
     61 H92          9.1000     0.0170    -1.3700 hc         1 NS1       0.047200
     62 H111         9.4940    -3.1290     0.0490 hc         1 NS1       0.040700
     63 H112         8.9720    -3.4430    -1.6160 hc         1 NS1       0.040700
     64 H113        10.0780    -2.1180    -1.2800 hc         1 NS1       0.040700
     65 H12          5.9450    -1.3930    -0.4030 ha         1 NS1       0.170000
     66 H13          7.0350    -4.3020    -0.7390 ha         1 NS1       0.171000
     67 H14          4.2380    -3.1050    -0.4100 ha         1 NS1       0.172000
     68 H161         6.1600    -6.3860     0.1460 hc         1 NS1       0.041700
     69 H162         4.9750    -7.3980    -0.6750 hc         1 NS1       0.041700
     70 H163         6.0160    -6.3350    -1.6210 hc         1 NS1       0.041700
     71 H17          2.8200    -6.6380    -0.5440 ha         1 NS1       0.169000
     72 H18          2.1640    -3.5840    -0.3680 ha         1 NS1       0.171000
     73 H19          0.4520    -6.1210    -0.3500 ha         1 NS1       0.172000
     74 H20         -0.2130    -3.0780    -0.1080 ha         1 NS1       0.168000
     75 H221        -2.4590    -6.3720     0.5940 hc         1 NS1       0.042033
     76 H222        -3.2670    -5.9090    -0.9130 hc         1 NS1       0.042033
     77 H223        -1.6280    -6.4970    -0.9640 hc         1 NS1       0.042033
     78 H23         -2.4370    -2.3640    -0.1790 ha         1 NS1       0.169000
     79 H24         -4.5420    -4.5340     0.3330 ha         1 NS1       0.174000
     80 H25         -4.6620    -1.4280     0.0870 ha         1 NS1       0.168000
     81 H271        -7.9020    -3.6110     1.7460 hc         1 NS1       0.042033
     82 H272        -7.5660    -4.2420     0.1250 hc         1 NS1       0.042033
     83 H273        -6.4310    -4.4980     1.4590 hc         1 NS1       0.042033
     84 H28         -6.6260    -0.2990     0.6620 ha         1 NS1       0.169000
     85 H29         -9.1610    -2.0240     0.7670 ha         1 NS1       0.172000
     86 H30         -8.6490     1.0550     0.7560 ha         1 NS1       0.169000
     87 H321       -12.5770    -0.5150     1.3940 hc         1 NS1       0.041033
     88 H322       -11.8010    -1.2480    -0.0150 hc         1 NS1       0.041033
     89 H323       -11.2490    -1.6440     1.6220 hc         1 NS1       0.041033
     90 H331       -12.0300     1.7540     1.6960 hc         1 NS1       0.047200
     91 H332       -10.5250     2.4590     1.1550 hc         1 NS1       0.047200
     92 H341       -11.1500     1.9500    -1.2370 hc         1 NS1       0.046200
     93 H342       -12.6830     1.3110    -0.6920 hc         1 NS1       0.046200
     94 H351       -13.5730     3.4450    -0.1950 ha         1 NS1       0.164000
     95 HM31       -10.3180     5.1410    -2.1370 hc         1 NS1       0.039033
     96 HM32        -9.9230     5.4480    -0.4390 hc         1 NS1       0.039033
     97 HM33        -9.8770     3.8050    -1.0700 hc         1 NS1       0.039033
     98 HM41       -13.6830     5.8160    -0.4750 hc         1 NS1       0.039033
     99 HM42       -12.1790     6.6230    -0.0150 hc         1 NS1       0.039033
    100 HM43       -12.5850     6.4100    -1.7270 hc         1 NS1       0.039033
@<TRIPOS>BOND
     1     1     2 1   
     2     1     3 1   
     3     1     4 1   
     4     1    41 1   
     5     2    42 1   
     6     2    43 1   
     7     2    44 1   
     8     3    45 1   
     9     3    46 1   
    10     3    47 1   
    11     4     5 1   
    12     4    48 1   
    13     4    49 1   
    14     5     6 1   
    15     5    50 1   
    16     5    51 1   
    17     6     7 1   
    18     6    52 1   
    19     6    53 1   
    20     7     8 1   
    21     7     9 2   
    22     8    54 1   
    23     8    55 1   
    24     8    56 1   
    25     9    10 1   
    26     9    57 1   
    27    10    11 1   
    28    10    58 1   
    29    10    59 1   
    30    11    12 1   
    31    11    60 1   
    32    11    61 1   
    33    12    13 1   
    34    12    14 2   
    35    13    62 1   
    36    13    63 1   
    37    13    64 1   
    38    14    15 1   
    39    14    65 1   
    40    15    16 2   
    41    15    66 1   
    42    16    17 1   
    43    16    67 1   
    44    17    18 1   
    45    17    19 2   
    46    18    68 1   
    47    18    69 1   
    48    18    70 1   
    49    19    20 1   
    50    19    71 1   
    51    20    21 2   
    52    20    72 1   
    53    21    22 1   
    54    21    73 1   
    55    22    23 2   
    56    22    74 1   
    57    23    24 1   
    58    23    25 1   
    59    24    75 1   
    60    24    76 1   
    61    24    77 1   
    62    25    26 2   
    63    25    78 1   
    64    26    27 1   
    65    26    79 1   
    66    27    28 2   
    67    27    80 1   
    68    28    29 1   
    69    28    30 1   
    70    29    81 1   
    71    29    82 1   
    72    29    83 1   
    73    30    31 2   
    74    30    84 1   
    75    31    32 1   
    76    31    85 1   
    77    32    33 2   
    78    32    86 1   
    79    33    34 1   
    80    33    35 1   
    81    34    87 1   
    82    34    88 1   
    83    34    89 1   
    84    35    36 1   
    85    35    90 1   
    86    35    91 1   
    87    36    37 1   
    88    36    92 1   
    89    36    93 1   
    90    37    38 2   
    91    37    94 1   
    92    38    39 1   
    93    38    40 1   
    94    39    95 1   
    95    39    96 1   
    96    39    97 1   
    97    40    98 1   
    98    40    99 1   
    99    40   100 1   
@<TRIPOS>SUBSTRUCTURE
     1 NS1         1 TEMP              0 ****  ****    0 ROOT
