@<TRIPOS>MOLECULE
NS2
   55    59     1     0     0
SMALL
bcc


@<TRIPOS>ATOM
      1 C01          4.7400     4.4180    -0.8800 c3         1 NS2       0.123700
      2 C03          3.6620     2.3330    -0.5500 ca         1 NS2       0.147100
      3 C04          4.7150     1.6180    -1.1160 ca         1 NS2      -0.204000
      4 C05          4.6470     0.2350    -1.1940 ca         1 NS2      -0.077000
      5 C06          3.5310    -0.4410    -0.7350 ca         1 NS2       0.004800
      6 C07          2.4640     0.2660    -0.1840 ca         1 NS2      -0.086600
      7 C08          2.5410     1.6430    -0.0840 ca         1 NS2      -0.135000
      8 C09          1.1670    -0.4000     0.1730 c          1 NS2       0.704700
      9 C12          1.8090    -0.1760     2.5600 c5         1 NS2       0.111000
     10 C13          1.1370    -0.7930     3.7790 c5         1 NS2      -0.093400
     11 C14         -0.3440    -0.6700     3.4470 c5         1 NS2      -0.085400
     12 C15         -0.4020    -1.0090     1.9450 c5         1 NS2       0.119100
     13 C16         -0.4940    -2.5210     1.7370 c3         1 NS2      -0.111100
     14 C17         -1.5220    -0.2620     1.2740 cc         1 NS2       0.425800
     15 C19         -2.7620     1.3040     0.5430 ca         1 NS2       0.077400
     16 C20         -3.3390     2.5210     0.1860 ca         1 NS2      -0.063000
     17 C21         -4.5400     2.4900    -0.4940 ca         1 NS2      -0.144000
     18 C22         -5.1510     1.2710    -0.8120 ca         1 NS2       0.040400
     19 C23         -4.6220     0.0320    -0.4780 ca         1 NS2      -0.066300
     20 C24         -3.4090     0.1030     0.2070 ca         1 NS2      -0.070200
     21 C26         -5.2780    -1.2660    -0.8290 c3         1 NS2      -0.036800
     22 C30          3.7590    -3.7890    -1.4910 cc         1 NS2       0.197400
     23 C31          3.1160    -3.8180    -0.2490 cc         1 NS2       0.197400
     24 N11          0.8810    -0.4790     1.4740 n          1 NS2      -0.454800
     25 N18         -1.5940     1.0380     1.2110 nd         1 NS2      -0.575100
     26 N25         -2.5860    -0.8750     0.7000 na         1 NS2      -0.243300
     27 N28          3.4840    -1.8480    -0.8030 na         1 NS2       0.351800
     28 N29          3.9750    -2.5270    -1.8140 nd         1 NS2      -0.493800
     29 N32          2.9630    -2.5720     0.1610 nd         1 NS2      -0.493800
     30 O02          3.6340     3.6660    -0.4150 os         1 NS2      -0.309900
     31 O10          0.4110    -0.7650    -0.7170 o          1 NS2      -0.590100
     32 CL1         -6.6580     1.3250    -1.6800 cl         1 NS2      -0.123400
     33 H013         4.5130     5.4600    -0.6710 h1         1 NS2       0.044367
     34 H011         5.6620     4.1480    -0.3600 h1         1 NS2       0.044367
     35 H012         4.8890     4.2980    -1.9560 h1         1 NS2       0.044367
     36 H041         5.6010     2.1120    -1.4900 ha         1 NS2       0.143000
     37 H051         5.4790    -0.3140    -1.6130 ha         1 NS2       0.155000
     38 H081         1.7140     2.2000     0.3400 ha         1 NS2       0.169000
     39 H121         1.9210     0.9040     2.6850 h1         1 NS2       0.056200
     40 H122         2.7930    -0.5990     2.3590 h1         1 NS2       0.056200
     41 H131         1.4270    -1.8390     3.8930 hc         1 NS2       0.055700
     42 H132         1.4080    -0.2740     4.6980 hc         1 NS2       0.055700
     43 H141        -0.9840    -1.3310     4.0310 hc         1 NS2       0.067200
     44 H142        -0.6780     0.3560     3.6060 hc         1 NS2       0.067200
     45 H162        -1.4200    -2.9130     2.1600 hc         1 NS2       0.051367
     46 H161        -0.4460    -2.7960     0.6840 hc         1 NS2       0.051367
     47 H163         0.3320    -3.0150     2.2470 hc         1 NS2       0.051367
     48 H201        -2.8650     3.4620     0.4300 ha         1 NS2       0.149000
     49 H211        -5.0190     3.4150    -0.7860 ha         1 NS2       0.146000
     50 H261        -5.3080    -1.4130    -1.9100 hc         1 NS2       0.045367
     51 H263        -4.7530    -2.1170    -0.3980 hc         1 NS2       0.045367
     52 H262        -6.3070    -1.3030    -0.4690 hc         1 NS2       0.045367
     53 H301         4.0530    -4.5990    -2.1380 h4         1 NS2       0.051600
     54 H311         2.7830    -4.6550     0.3400 h4         1 NS2       0.051600
     55 H251        -2.7200    -1.8700     0.6160 hn         1 NS2       0.310700
@<TRIPOS>BOND
     1     1    30 1   
     2     1    33 1   
     3     1    34 1   
     4     1    35 1   
     5     2     3 ar  
     6     2     7 ar  
     7     2    30 1   
     8     3     4 ar  
     9     3    36 1   
    10     4     5 ar  
    11     4    37 1   
    12     5     6 ar  
    13     5    27 1   
    14     6     7 ar  
    15     6     8 1   
    16     7    38 1   
    17     8    24 1   
    18     8    31 2   
    19     9    10 1   
    20     9    24 1   
    21     9    39 1   
    22     9    40 1   
    23    10    11 1   
    24    10    41 1   
    25    10    42 1   
    26    11    12 1   
    27    11    43 1   
    28    11    44 1   
    29    12    13 1   
    30    12    14 1   
    31    12    24 1   
    32    13    45 1   
    33    13    46 1   
    34    13    47 1   
    35    14    25 2   
    36    14    26 1   
    37    15    16 ar  
    38    15    20 ar  
    39    15    25 1   
    40    16    17 ar  
    41    16    48 1   
    42    17    18 ar  
    43    17    49 1   
    44    18    19 ar  
    45    18    32 1   
    46    19    20 ar  
    47    19    21 1   
    48    20    26 1   
    49    21    50 1   
    50    21    51 1   
    51    21    52 1   
    52    22    23 1   
    53    22    28 2   
    54    22    53 1   
    55    23    29 2   
    56    23    54 1   
    57    26    55 1   
    58    27    28 1   
    59    27    29 1   
@<TRIPOS>SUBSTRUCTURE
     1 NS2         1 TEMP              0 ****  ****    0 ROOT
