@<TRIPOS>MOLECULE
NS2
   55    59     1     0     0
SMALL
No Charge or Current Charge


@<TRIPOS>ATOM
      1 C01          5.3330     4.3470    -0.2630 c3         1 NS2       0.146900
      2 C03          4.0100     2.2630    -0.2660 ca         1 NS2       0.147100
      3 C04          5.0140     1.5370    -0.9380 ca         1 NS2      -0.186000
      4 C05          4.8100     0.1810    -1.2480 ca         1 NS2      -0.059000
      5 C06          3.6100    -0.4660    -0.8910 ca         1 NS2       0.004800
      6 C07          2.6020     0.2580    -0.2080 ca         1 NS2      -0.086600
      7 C08          2.8140     1.6220     0.0900 ca         1 NS2      -0.117000
      8 C09          1.2930    -0.4000     0.1590 c          1 NS2       0.637700
      9 C12          1.8130     0.0350     2.6130 c5         1 NS2       0.111000
     10 C13          1.0410    -0.4140     3.8770 c5         1 NS2      -0.093400
     11 C14         -0.4290    -0.2180     3.4280 c5         1 NS2      -0.085400
     12 C15         -0.4450    -0.8120     1.9780 c5         1 NS2       0.119100
     13 C16         -0.4940    -2.3700     2.0130 c3         1 NS2      -0.111100
     14 C17         -1.6130    -0.1640     1.2100 cc         1 NS2       0.425800
     15 C19         -2.9560     1.2000     0.2020 ca         1 NS2       0.077400
     16 C20         -3.5580     2.3240    -0.3770 ca         1 NS2      -0.045000
     17 C21         -4.8240     2.1680    -0.9800 ca         1 NS2      -0.126000
     18 C22         -5.4620     0.9060    -0.9940 ca         1 NS2       0.132000
     19 C23         -4.8420    -0.2240    -0.4030 ca         1 NS2      -0.066300
     20 C24         -3.5800    -0.0150     0.1850 ca         1 NS2      -0.070200
     21 C26         -5.5130    -1.5950    -0.4070 c3         1 NS2      -0.036800
     22 C30          3.2790    -3.5780    -2.2650 cc         1 NS2       0.197400
     23 C31          3.2510    -3.8650    -0.8970 cc         1 NS2       0.197400
     24 N11          0.8990    -0.3630     1.5150 n          1 NS2      -0.387800
     25 N18         -1.7240     1.1330     0.8440 nd         1 NS2      -0.575100
     26 N25         -2.7450    -0.8840     0.8220 na         1 NS2      -0.293600
     27 N28          3.4570    -1.8240    -1.1810 na         1 NS2       0.351800
     28 N29          3.4160    -2.2930    -2.4880 nd         1 NS2      -0.493800
     29 N32          3.3690    -2.7780    -0.1730 nd         1 NS2      -0.493800
     30 O02          4.1480     3.5970     0.0580 os         1 NS2      -0.333100
     31 O10          0.5790    -0.9030    -0.7010 o          1 NS2      -0.590100
     32 Cl1         -7.0440     0.7690    -1.7620 cl         1 NS2      -0.215000
     33 H013         5.2320     5.3830     0.0830 h1         1 NS2       0.044367
     34 H011         6.2150     3.9110     0.2230 h1         1 NS2       0.044367
     35 H012         5.5010     4.3670    -1.3480 h1         1 NS2       0.044367
     36 H041         5.9520     2.0020    -1.2280 ha         1 NS2       0.125000
     37 H051         5.5920    -0.3750    -1.7640 ha         1 NS2       0.137000
     38 H081         2.0360     2.1990     0.5850 ha         1 NS2       0.151000
     39 H121         1.9630     1.1220     2.6210 h1         1 NS2       0.056200
     40 H122         2.7940    -0.4520     2.5370 h1         1 NS2       0.056200
     41 H131         1.2570    -1.4580     4.1310 hc         1 NS2       0.055700
     42 H132         1.2990     0.1880     4.7560 hc         1 NS2       0.055700
     43 H141        -1.1430    -0.7140     4.0960 hc         1 NS2       0.067200
     44 H142        -0.6850     0.8480     3.4310 hc         1 NS2       0.067200
     45 H162        -1.3750    -2.7300     2.5580 hc         1 NS2       0.051367
     46 H161        -0.5360    -2.7860     0.9990 hc         1 NS2       0.051367
     47 H163         0.3890    -2.8020     2.4950 hc         1 NS2       0.051367
     48 H201        -3.0600     3.2910    -0.3620 ha         1 NS2       0.131000
     49 H211        -5.3130     3.0240    -1.4370 ha         1 NS2       0.128000
     50 H261        -5.6960    -1.9380    -1.4320 hc         1 NS2       0.045367
     51 H263        -4.9040    -2.3600     0.0880 hc         1 NS2       0.045367
     52 H262        -6.4770    -1.5600     0.1130 hc         1 NS2       0.045367
     53 H301         3.2070    -4.2680    -3.0950 h4         1 NS2       0.051600
     54 H311         3.1520    -4.8280    -0.4150 h4         1 NS2       0.051600
     55 H251        -2.8990    -1.8700     0.9820 hn         1 NS2       0.361000
@<TRIPOS>BOND
     1     1    30 1   
     2     1    33 1   
     3     1    34 1   
     4     1    35 1   
     5     2     3 ar  
     6     2     7 ar  
     7     2    30 1   
     8     3     4 ar  
     9     3    36 1   
    10     4     5 ar  
    11     4    37 1   
    12     5     6 ar  
    13     5    27 1   
    14     6     7 ar  
    15     6     8 1   
    16     7    38 1   
    17     8    24 1   
    18     8    31 2   
    19     9    10 1   
    20     9    24 1   
    21     9    39 1   
    22     9    40 1   
    23    10    11 1   
    24    10    41 1   
    25    10    42 1   
    26    11    12 1   
    27    11    43 1   
    28    11    44 1   
    29    12    13 1   
    30    12    14 1   
    31    12    24 1   
    32    13    45 1   
    33    13    46 1   
    34    13    47 1   
    35    14    25 2   
    36    14    26 1   
    37    15    16 ar  
    38    15    20 ar  
    39    15    25 1   
    40    16    17 ar  
    41    16    48 1   
    42    17    18 ar  
    43    17    49 1   
    44    18    19 ar  
    45    18    32 1   
    46    19    20 ar  
    47    19    21 1   
    48    20    26 1   
    49    21    50 1   
    50    21    51 1   
    51    21    52 1   
    52    22    23 1   
    53    22    28 2   
    54    22    53 1   
    55    23    29 2   
    56    23    54 1   
    57    26    55 1   
    58    27    28 1   
    59    27    29 1   
@<TRIPOS>SUBSTRUCTURE
     1 NS2         1 TEMP              0 ****  ****    0 ROOT
