@<TRIPOS>MOLECULE
NS4
   39    40     1     0     0
SMALL
No Charge or Current Charge


@<TRIPOS>ATOM
      1 C1          -1.3360    -0.4540    -0.6770 ca         1 NS4       0.325000
      2 N1          -2.0250     0.7350    -0.9010 nu         1 NS4      -0.905100
      3 O1          -3.2340     2.8190    -0.3460 o          1 NS4      -0.521000
      4 S1          -2.9380     1.5100     0.2360 s6         1 NS4       1.218100
      5 C2           0.0790    -0.4500    -0.6630 ca         1 NS4       0.105100
      6 N2           0.8080    -4.1570     0.0110 no         1 NS4       0.697200
      7 O2          -4.0160     0.5930     0.6070 o          1 NS4      -0.521000
      8 C3           0.7770    -1.6610    -0.4430 ca         1 NS4      -0.118000
      9 O3           2.0460    -4.1280     0.0280 o          1 NS4      -0.400500
     10 C4           0.0700    -2.8700    -0.2260 ca         1 NS4      -0.175200
     11 O4           0.1460    -5.1890     0.1850 o          1 NS4      -0.400500
     12 C5          -1.3430    -2.8530    -0.2420 ca         1 NS4      -0.037000
     13 O5           0.7280     0.7630    -0.8750 os         1 NS4      -0.368100
     14 C6          -2.0350    -1.6520    -0.4690 ca         1 NS4      -0.161000
     15 C7          -1.8400     1.7290     1.6180 c3         1 NS4      -0.376100
     16 C8           2.1070     0.9790    -0.5050 c6         1 NS4       0.179300
     17 C9           2.2780     0.9490     1.0400 c6         1 NS4      -0.091400
     18 C10          3.7370     1.2650     1.4540 c6         1 NS4      -0.072900
     19 C11          4.2010     2.6240     0.8760 c6         1 NS4      -0.079400
     20 C12          4.0270     2.6670    -0.6620 c6         1 NS4      -0.072900
     21 C13          2.5660     2.3470    -1.0670 c6         1 NS4      -0.091400
     22 HN1         -1.4140     1.4820    -1.2050 hn         1 NS4       0.530000
     23 H3           1.8630    -1.6750    -0.4440 ha         1 NS4       0.158000
     24 H5          -1.9150    -3.7670    -0.0840 ha         1 NS4       0.157000
     25 H6          -3.1210    -1.6550    -0.4930 ha         1 NS4       0.151000
     26 H7          -0.9800     2.3120     1.2740 h1         1 NS4       0.107033
     27 H7A         -2.3960     2.2630     2.3940 h1         1 NS4       0.107033
     28 H7B         -1.5370     0.7350     1.9630 h1         1 NS4       0.107033
     29 H8           2.7320     0.2030    -0.9680 h1         1 NS4       0.052700
     30 H9           1.5980     1.6800     1.5000 hc         1 NS4       0.054450
     31 H9A          1.9930    -0.0320     1.4410 hc         1 NS4       0.054450
     32 H10          3.8200     1.2770     2.5490 hc         1 NS4       0.046950
     33 H10A         4.4030     0.4650     1.1000 hc         1 NS4       0.046950
     34 H11          3.6240     3.4380     1.3370 hc         1 NS4       0.045200
     35 H11A         5.2530     2.8020     1.1380 hc         1 NS4       0.045200
     36 H12          4.3120     3.6580    -1.0420 hc         1 NS4       0.046950
     37 H12A         4.7090     1.9450    -1.1320 hc         1 NS4       0.046950
     38 H13          2.4790     2.3450    -2.1620 hc         1 NS4       0.054450
     39 H13A         1.8990     3.1410    -0.7020 hc         1 NS4       0.054450
@<TRIPOS>BOND
     1     1     2 1   
     2     1     5 ar  
     3     1    14 ar  
     4     2     4 1   
     5     2    22 1   
     6     3     4 2   
     7     4     7 2   
     8     4    15 1   
     9     5     8 ar  
    10     5    13 1   
    11     6     9 1   
    12     6    10 1   
    13     6    11 1   
    14     8    10 ar  
    15     8    23 1   
    16    10    12 ar  
    17    12    14 ar  
    18    12    24 1   
    19    13    16 1   
    20    14    25 1   
    21    15    26 1   
    22    15    27 1   
    23    15    28 1   
    24    16    17 1   
    25    16    21 1   
    26    16    29 1   
    27    17    18 1   
    28    17    30 1   
    29    17    31 1   
    30    18    19 1   
    31    18    32 1   
    32    18    33 1   
    33    19    20 1   
    34    19    34 1   
    35    19    35 1   
    36    20    21 1   
    37    20    36 1   
    38    20    37 1   
    39    21    38 1   
    40    21    39 1   
@<TRIPOS>SUBSTRUCTURE
     1 NS4         1 TEMP              0 ****  ****    0 ROOT
