@<TRIPOS>MOLECULE
NS4
   39    40     1     0     0
SMALL
abcg2


@<TRIPOS>ATOM
      1 C1          -1.1570    -0.2000    -0.2730 ca         1 NS4       0.325000
      2 N1          -1.7210     1.0620    -0.3910 nu         1 NS4      -0.905100
      3 O1          -3.3350     2.9240    -0.2570 o          1 NS4      -0.521000
      4 S1          -3.2900     1.4900    -0.0440 s6         1 NS4       1.218100
      5 C2           0.2580    -0.2600    -0.2690 ca         1 NS4       0.105100
      6 N2           0.8090    -3.9080     0.1060 no         1 NS4       0.697200
      7 O2          -4.1810     0.6270    -0.7990 o          1 NS4      -0.521000
      8 C3           0.8940    -1.4780    -0.1480 ca         1 NS4      -0.118000
      9 O3           2.0200    -3.9130     0.1040 o          1 NS4      -0.400500
     10 C4           0.1300    -2.6380    -0.0340 ca         1 NS4      -0.175200
     11 O4           0.1350    -4.9060     0.2200 o          1 NS4      -0.400500
     12 C5          -1.2500    -2.6020    -0.0480 ca         1 NS4      -0.037000
     13 O5           0.8680     0.9260    -0.4020 os         1 NS4      -0.368100
     14 C6          -1.8870    -1.3780    -0.1760 ca         1 NS4      -0.161000
     15 C7          -3.4930     1.1450     1.6850 c3         1 NS4      -0.376100
     16 C8           2.2950     1.0330    -0.3700 c6         1 NS4       0.179300
     17 C9           2.8260     0.9500     1.0550 c6         1 NS4      -0.091400
     18 C10          4.3410     1.1410     1.0660 c6         1 NS4      -0.072900
     19 C11          4.7370     2.4580     0.4080 c6         1 NS4      -0.079400
     20 C12          4.1680     2.5600    -1.0040 c6         1 NS4      -0.072900
     21 C13          2.6550     2.3610    -1.0150 c6         1 NS4      -0.091400
     22 HN1         -1.0750     1.8430    -0.3610 hn         1 NS4       0.530000
     23 H3           1.9710    -1.5450    -0.1400 ha         1 NS4       0.158000
     24 H5          -1.8430    -3.4990     0.0350 ha         1 NS4       0.157000
     25 H6          -2.9650    -1.3670    -0.2110 ha         1 NS4       0.151000
     26 H7          -2.8020     1.7640     2.2500 h1         1 NS4       0.107033
     27 H7A         -4.5210     1.3870     1.9470 h1         1 NS4       0.107033
     28 H7B         -3.3050     0.0910     1.8800 h1         1 NS4       0.107033
     29 H8           2.7300     0.2290    -0.9770 h1         1 NS4       0.052700
     30 H9           2.3480     1.7330     1.6530 hc         1 NS4       0.054450
     31 H9A          2.5660    -0.0050     1.5170 hc         1 NS4       0.054450
     32 H10          4.7050     1.1010     2.0940 hc         1 NS4       0.046950
     33 H10A         4.8150     0.3090     0.5360 hc         1 NS4       0.046950
     34 H11          4.3590     3.2910     1.0100 hc         1 NS4       0.045200
     35 H11A         5.8250     2.5580     0.3840 hc         1 NS4       0.045200
     36 H12          4.4100     3.5300    -1.4420 hc         1 NS4       0.046950
     37 H12A         4.6390     1.8060    -1.6430 hc         1 NS4       0.046950
     38 H13          2.2770     2.3910    -2.0390 hc         1 NS4       0.054450
     39 H13A         2.1710     3.1730    -0.4630 hc         1 NS4       0.054450
@<TRIPOS>BOND
     1     1     2 1   
     2     1     5 ar  
     3     1    14 ar  
     4     2     4 1   
     5     2    22 1   
     6     3     4 2   
     7     4     7 2   
     8     4    15 1   
     9     5     8 ar  
    10     5    13 1   
    11     6     9 1   
    12     6    10 1   
    13     6    11 1   
    14     8    10 ar  
    15     8    23 1   
    16    10    12 ar  
    17    12    14 ar  
    18    12    24 1   
    19    13    16 1   
    20    14    25 1   
    21    15    26 1   
    22    15    27 1   
    23    15    28 1   
    24    16    17 1   
    25    16    21 1   
    26    16    29 1   
    27    17    18 1   
    28    17    30 1   
    29    17    31 1   
    30    18    19 1   
    31    18    32 1   
    32    18    33 1   
    33    19    20 1   
    34    19    34 1   
    35    19    35 1   
    36    20    21 1   
    37    20    36 1   
    38    20    37 1   
    39    21    38 1   
    40    21    39 1   
@<TRIPOS>SUBSTRUCTURE
     1 NS4         1 TEMP              0 ****  ****    0 ROOT
