@<TRIPOS>MOLECULE
NS5
  100    99     1     0     0
SMALL
No Charge or Current Charge


@<TRIPOS>ATOM
      1 C1           9.2840     6.8880    -0.8670 c3         1 NS5      -0.059700
      2 CM1          7.8120     7.2650    -1.1640 c3         1 NS5      -0.087600
      3 CM2         10.1560     8.1580    -0.7350 c3         1 NS5      -0.087600
      4 C2           9.4380     5.9780     0.3820 c3         1 NS5      -0.073400
      5 C3           8.7390     4.6010     0.2740 c3         1 NS5      -0.071400
      6 C4           9.0100     3.6900     1.4930 c3         1 NS5      -0.041200
      7 C5           8.3750     2.3130     1.3610 c2         1 NS5      -0.107400
      8 C6           6.8830     2.3100     1.6740 c3         1 NS5      -0.054900
      9 C7           9.0950     1.2280     1.0150 c2         1 NS5      -0.225200
     10 C8           8.6070    -0.2030     0.8800 c3         1 NS5      -0.036200
     11 C9           8.0320    -0.4940    -0.5220 c3         1 NS5      -0.040200
     12 C10          7.4880    -1.9100    -0.6550 c2         1 NS5      -0.094400
     13 C11          8.5810    -2.9630    -0.7850 c3         1 NS5      -0.057900
     14 C12          6.1610    -2.1790    -0.6190 ce         1 NS5      -0.192000
     15 C13          5.5570    -3.5170    -0.6990 ce         1 NS5      -0.166000
     16 C14          4.2120    -3.7440    -0.6860 cf         1 NS5      -0.181000
     17 C15          3.5290    -5.0410    -0.7500 cf         1 NS5      -0.060200
     18 C16          4.3470    -6.2480    -1.2030 c3         1 NS5      -0.056900
     19 C17          2.1940    -5.1210    -0.4700 ce         1 NS5      -0.180000
     20 C18          1.3570    -6.3360    -0.4780 ce         1 NS5      -0.168000
     21 C19          0.0010    -6.3930    -0.3450 cf         1 NS5      -0.171000
     22 C20         -0.9150    -5.2570    -0.2070 cf         1 NS5      -0.175000
     23 C21         -2.2510    -5.3070     0.0740 ce         1 NS5      -0.064200
     24 C22         -2.9860    -6.6110     0.3740 c3         1 NS5      -0.055900
     25 C23         -3.0300    -4.0540     0.1690 ce         1 NS5      -0.176000
     26 C24         -4.3870    -3.9270     0.2080 cf         1 NS5      -0.170000
     27 C25         -5.0810    -2.6440     0.3010 cf         1 NS5      -0.180000
     28 C26         -6.4300    -2.4260     0.2770 ce         1 NS5      -0.060200
     29 C27         -7.4470    -3.5460     0.0710 c3         1 NS5      -0.055900
     30 C28         -6.9530    -1.0490     0.3860 ce         1 NS5      -0.181000
     31 C29         -8.2430    -0.6710     0.6150 cf         1 NS5      -0.165000
     32 C30         -8.6790     0.7190     0.7130 cf         1 NS5      -0.192000
     33 C31         -9.9420     1.1400     0.9720 c2         1 NS5      -0.094400
     34 C32        -11.1280     0.2130     1.2040 c3         1 NS5      -0.056900
     35 C33        -10.3100     2.6170     1.0130 c3         1 NS5      -0.042200
     36 C34        -11.0340     3.0880    -0.2650 c3         1 NS5      -0.035200
     37 C35        -11.3500     4.5730    -0.2330 c2         1 NS5      -0.226200
     38 C36        -10.5630     5.5880    -0.6370 c2         1 NS5      -0.110400
     39 CM3         -9.1530     5.4420    -1.1910 c3         1 NS5      -0.056400
     40 CM4        -11.0100     7.0370    -0.5780 c3         1 NS5      -0.056400
     41 H1           9.6610     6.3300    -1.7340 hc         1 NS5       0.044700
     42 HM11         7.2170     6.3780    -1.4080 hc         1 NS5       0.031533
     43 HM12         7.3540     7.7620    -0.3000 hc         1 NS5       0.031533
     44 HM13         7.7530     7.9460    -2.0210 hc         1 NS5       0.031533
     45 HM21         9.8310     8.7690     0.1160 hc         1 NS5       0.031533
     46 HM22        11.2090     7.8930    -0.5850 hc         1 NS5       0.031533
     47 HM23        10.0900     8.7710    -1.6420 hc         1 NS5       0.031533
     48 H21         10.5080     5.8080     0.5610 hc         1 NS5       0.036700
     49 H22          9.0560     6.5070     1.2650 hc         1 NS5       0.036700
     50 H31          7.6580     4.7480     0.1730 hc         1 NS5       0.040700
     51 H32          9.0820     4.0920    -0.6340 hc         1 NS5       0.040700
     52 H41         10.0960     3.5860     1.6060 hc         1 NS5       0.042200
     53 H42          8.6610     4.1860     2.4080 hc         1 NS5       0.042200
     54 H61          6.6980     2.6430     2.7020 hc         1 NS5       0.039367
     55 H62          6.3340     2.9830     1.0050 hc         1 NS5       0.039367
     56 H63          6.4270     1.3210     1.5670 hc         1 NS5       0.039367
     57 H7          10.1620     1.3360     0.8110 ha         1 NS5       0.164000
     58 H81          9.4350    -0.8930     1.0840 hc         1 NS5       0.046200
     59 H82          7.8430    -0.4270     1.6340 hc         1 NS5       0.046200
     60 H91          7.2360     0.2330    -0.7270 hc         1 NS5       0.047700
     61 H92          8.8050    -0.3050    -1.2770 hc         1 NS5       0.047700
     62 H111         8.7710    -3.4490     0.1790 hc         1 NS5       0.041033
     63 H112         8.3070    -3.7420    -1.5070 hc         1 NS5       0.041033
     64 H113         9.5290    -2.5350    -1.1320 hc         1 NS5       0.041033
     65 H12          5.4580    -1.3500    -0.5110 ha         1 NS5       0.170000
     66 H13          6.2380    -4.3660    -0.7520 ha         1 NS5       0.171000
     67 H14          3.5640    -2.8700    -0.6000 ha         1 NS5       0.170000
     68 H161         4.8080    -6.7560    -0.3490 hc         1 NS5       0.042033
     69 H162         3.7390    -6.9820    -1.7420 hc         1 NS5       0.042033
     70 H163         5.1460    -5.9650    -1.8980 hc         1 NS5       0.042033
     71 H17          1.6930    -4.1970    -0.1860 ha         1 NS5       0.171000
     72 H18          1.8760    -7.2900    -0.5820 ha         1 NS5       0.170000
     73 H19         -0.4460    -7.3890    -0.3620 ha         1 NS5       0.170000
     74 H20         -0.4860    -4.2690    -0.3730 ha         1 NS5       0.170000
     75 H221        -3.7870    -6.4720     1.1090 hc         1 NS5       0.042367
     76 H222        -3.4330    -7.0310    -0.5350 hc         1 NS5       0.042367
     77 H223        -2.3260    -7.3720     0.8040 hc         1 NS5       0.042367
     78 H23         -2.4420    -3.1350     0.1920 ha         1 NS5       0.169000
     79 H24         -4.9990    -4.8270     0.1640 ha         1 NS5       0.173000
     80 H25         -4.4370    -1.7700     0.4200 ha         1 NS5       0.169000
     81 H271        -7.7870    -3.9520     1.0310 hc         1 NS5       0.041700
     82 H272        -8.3290    -3.2040    -0.4810 hc         1 NS5       0.041700
     83 H273        -7.0400    -4.3750    -0.5170 hc         1 NS5       0.041700
     84 H28         -6.2110    -0.2540     0.2900 ha         1 NS5       0.170000
     85 H29         -9.0040    -1.4420     0.7410 ha         1 NS5       0.171000
     86 H30         -7.9070     1.4750     0.5500 ha         1 NS5       0.169000
     87 H321       -11.9590     0.7220     1.7080 hc         1 NS5       0.040700
     88 H322       -11.5090    -0.1770     0.2520 hc         1 NS5       0.040700
     89 H323       -10.8550    -0.6420     1.8330 hc         1 NS5       0.040700
     90 H331       -10.9370     2.8340     1.8870 hc         1 NS5       0.047200
     91 H332        -9.4050     3.2250     1.1420 hc         1 NS5       0.047200
     92 H341       -10.4180     2.8400    -1.1380 hc         1 NS5       0.046200
     93 H342       -11.9640     2.5190    -0.3870 hc         1 NS5       0.046200
     94 H351       -12.3480     4.7890     0.1540 ha         1 NS5       0.164000
     95 HM31        -9.1000     5.7990    -2.2270 hc         1 NS5       0.038867
     96 HM32        -8.4390     6.0290    -0.6020 hc         1 NS5       0.038867
     97 HM33        -8.7950     4.4070    -1.1840 hc         1 NS5       0.038867
     98 HM41       -12.0270     7.1330    -0.1800 hc         1 NS5       0.038867
     99 HM42       -10.3490     7.6290     0.0660 hc         1 NS5       0.038867
    100 HM43       -11.0030     7.4940    -1.5750 hc         1 NS5       0.038867
@<TRIPOS>BOND
     1     1     2 1   
     2     1     3 1   
     3     1     4 1   
     4     1    41 1   
     5     2    42 1   
     6     2    43 1   
     7     2    44 1   
     8     3    45 1   
     9     3    46 1   
    10     3    47 1   
    11     4     5 1   
    12     4    48 1   
    13     4    49 1   
    14     5     6 1   
    15     5    50 1   
    16     5    51 1   
    17     6     7 1   
    18     6    52 1   
    19     6    53 1   
    20     7     8 1   
    21     7     9 2   
    22     8    54 1   
    23     8    55 1   
    24     8    56 1   
    25     9    10 1   
    26     9    57 1   
    27    10    11 1   
    28    10    58 1   
    29    10    59 1   
    30    11    12 1   
    31    11    60 1   
    32    11    61 1   
    33    12    13 1   
    34    12    14 2   
    35    13    62 1   
    36    13    63 1   
    37    13    64 1   
    38    14    15 1   
    39    14    65 1   
    40    15    16 2   
    41    15    66 1   
    42    16    17 1   
    43    16    67 1   
    44    17    18 1   
    45    17    19 2   
    46    18    68 1   
    47    18    69 1   
    48    18    70 1   
    49    19    20 1   
    50    19    71 1   
    51    20    21 2   
    52    20    72 1   
    53    21    22 1   
    54    21    73 1   
    55    22    23 2   
    56    22    74 1   
    57    23    24 1   
    58    23    25 1   
    59    24    75 1   
    60    24    76 1   
    61    24    77 1   
    62    25    26 2   
    63    25    78 1   
    64    26    27 1   
    65    26    79 1   
    66    27    28 2   
    67    27    80 1   
    68    28    29 1   
    69    28    30 1   
    70    29    81 1   
    71    29    82 1   
    72    29    83 1   
    73    30    31 2   
    74    30    84 1   
    75    31    32 1   
    76    31    85 1   
    77    32    33 2   
    78    32    86 1   
    79    33    34 1   
    80    33    35 1   
    81    34    87 1   
    82    34    88 1   
    83    34    89 1   
    84    35    36 1   
    85    35    90 1   
    86    35    91 1   
    87    36    37 1   
    88    36    92 1   
    89    36    93 1   
    90    37    38 2   
    91    37    94 1   
    92    38    39 1   
    93    38    40 1   
    94    39    95 1   
    95    39    96 1   
    96    39    97 1   
    97    40    98 1   
    98    40    99 1   
    99    40   100 1   
@<TRIPOS>SUBSTRUCTURE
     1 NS5         1 TEMP              0 ****  ****    0 ROOT
