@<TRIPOS>MOLECULE
NS5
  100    99     1     0     0
SMALL
bcc


@<TRIPOS>ATOM
      1 C1           8.5990     7.0280    -0.6960 c3         1 NS5      -0.059700
      2 CM1          7.2790     7.4880    -0.0830 c3         1 NS5      -0.087600
      3 CM2          9.5330     8.2180    -0.9020 c3         1 NS5      -0.087600
      4 C2           9.2910     5.9580     0.1490 c3         1 NS5      -0.073400
      5 C3           8.4960     4.6720     0.3420 c3         1 NS5      -0.071400
      6 C4           9.2940     3.6200     1.1140 c3         1 NS5      -0.041200
      7 C5           8.5680     2.3130     1.2950 c2         1 NS5      -0.107400
      8 C6           7.3910     2.3490     2.2250 c3         1 NS5      -0.054900
      9 C7           8.9780     1.2220     0.6410 c2         1 NS5      -0.175200
     10 C8           8.3800    -0.1500     0.6580 c3         1 NS5      -0.036200
     11 C9           7.6540    -0.4660    -0.6620 c3         1 NS5      -0.040200
     12 C10          7.2070    -1.8950    -0.7510 c2         1 NS5      -0.094400
     13 C11          8.3090    -2.9130    -0.7880 c3         1 NS5      -0.057900
     14 C12          5.8970    -2.2060    -0.7550 ce         1 NS5      -0.142000
     15 C13          5.3370    -3.5370    -0.8000 ce         1 NS5      -0.116000
     16 C14          4.0140    -3.7870    -0.7280 cf         1 NS5      -0.131000
     17 C15          3.4010    -5.0990    -0.7520 cf         1 NS5      -0.060200
     18 C16          4.2920    -6.2900    -0.9350 c3         1 NS5      -0.056900
     19 C17          2.0520    -5.1800    -0.6000 ce         1 NS5      -0.130000
     20 C18          1.2660    -6.3800    -0.5710 ce         1 NS5      -0.118000
     21 C19         -0.0770    -6.4610    -0.3910 cf         1 NS5      -0.121000
     22 C20         -0.9800    -5.3600    -0.2190 cf         1 NS5      -0.125000
     23 C21         -2.3220    -5.4310    -0.0140 ce         1 NS5      -0.064200
     24 C22         -3.0870    -6.7160     0.0910 c3         1 NS5      -0.055900
     25 C23         -3.0510    -4.1890     0.1090 ce         1 NS5      -0.126000
     26 C24         -4.3840    -4.0650     0.3000 cf         1 NS5      -0.120000
     27 C25         -5.0300    -2.7870     0.4040 cf         1 NS5      -0.130000
     28 C26         -6.3570    -2.5430     0.5610 ce         1 NS5      -0.060200
     29 C27         -7.3940    -3.6230     0.6500 c3         1 NS5      -0.055900
     30 C28         -6.7960    -1.1650     0.6360 ce         1 NS5      -0.131000
     31 C29         -8.0740    -0.7540     0.7630 cf         1 NS5      -0.115000
     32 C30         -8.4520     0.6390     0.8140 cf         1 NS5      -0.142000
     33 C31         -9.6970     1.1380     0.9190 c2         1 NS5      -0.094400
     34 C32        -10.9400     0.3100     1.0250 c3         1 NS5      -0.056900
     35 C33         -9.9130     2.6250     0.9150 c3         1 NS5      -0.042200
     36 C34        -10.4000     3.1520    -0.4470 c3         1 NS5      -0.035200
     37 C35        -10.7380     4.6090    -0.3840 c2         1 NS5      -0.176200
     38 C36        -10.0770     5.6300    -0.9340 c2         1 NS5      -0.110400
     39 CM3         -8.8310     5.4980    -1.7590 c3         1 NS5      -0.056400
     40 CM4        -10.5550     7.0430    -0.7590 c3         1 NS5      -0.056400
     41 H1           8.3820     6.5920    -1.6790 hc         1 NS5       0.044700
     42 HM11         6.5470     6.6820    -0.0260 hc         1 NS5       0.031533
     43 HM12         7.4310     7.8700     0.9300 hc         1 NS5       0.031533
     44 HM13         6.8340     8.2900    -0.6740 hc         1 NS5       0.031533
     45 HM21         9.7870     8.6810     0.0550 hc         1 NS5       0.031533
     46 HM22        10.4670     7.9150    -1.3800 hc         1 NS5       0.031533
     47 HM23         9.0740     8.9840    -1.5290 hc         1 NS5       0.031533
     48 H21         10.2510     5.7110    -0.3190 hc         1 NS5       0.036700
     49 H22          9.5360     6.3840     1.1300 hc         1 NS5       0.036700
     50 H31          7.5610     4.8890     0.8640 hc         1 NS5       0.040700
     51 H32          8.2150     4.2620    -0.6350 hc         1 NS5       0.040700
     52 H41         10.2390     3.4420     0.5920 hc         1 NS5       0.042200
     53 H42          9.5570     4.0300     2.0960 hc         1 NS5       0.042200
     54 H61          7.6820     2.7520     3.1980 hc         1 NS5       0.039367
     55 H62          6.6070     3.0060     1.8410 hc         1 NS5       0.039367
     56 H63          6.9440     1.3710     2.3880 hc         1 NS5       0.039367
     57 H7           9.8370     1.3290    -0.0190 ha         1 NS5       0.114000
     58 H81          9.1790    -0.8810     0.8110 hc         1 NS5       0.046200
     59 H82          7.6790    -0.2800     1.4850 hc         1 NS5       0.046200
     60 H91          6.8050     0.2120    -0.7690 hc         1 NS5       0.047700
     61 H92          8.3380    -0.2540    -1.4930 hc         1 NS5       0.047700
     62 H111         8.6740    -3.1360     0.2180 hc         1 NS5       0.041033
     63 H112         8.0110    -3.8570    -1.2400 hc         1 NS5       0.041033
     64 H113         9.1640    -2.5340    -1.3510 hc         1 NS5       0.041033
     65 H12          5.1800    -1.3900    -0.7080 ha         1 NS5       0.120000
     66 H13          6.0270    -4.3690    -0.8820 ha         1 NS5       0.121000
     67 H14          3.3350    -2.9430    -0.6300 ha         1 NS5       0.120000
     68 H161         5.0260    -6.3590    -0.1300 hc         1 NS5       0.042033
     69 H162         3.7470    -7.2300    -0.9580 hc         1 NS5       0.042033
     70 H163         4.8530    -6.2170    -1.8690 hc         1 NS5       0.042033
     71 H17          1.5240    -4.2400    -0.4730 ha         1 NS5       0.121000
     72 H18          1.7860    -7.3220    -0.6950 ha         1 NS5       0.120000
     73 H19         -0.4970    -7.4600    -0.3820 ha         1 NS5       0.120000
     74 H20         -0.5550    -4.3620    -0.2680 ha         1 NS5       0.120000
     75 H221        -3.6370    -6.7620     1.0330 hc         1 NS5       0.042367
     76 H222        -3.8240    -6.8010    -0.7100 hc         1 NS5       0.042367
     77 H223        -2.4500    -7.5950     0.0440 hc         1 NS5       0.042367
     78 H23         -2.4590    -3.2790     0.0340 ha         1 NS5       0.119000
     79 H24         -4.9940    -4.9590     0.3760 ha         1 NS5       0.123000
     80 H25         -4.3700    -1.9250     0.3440 ha         1 NS5       0.119000
     81 H271        -7.9260    -3.5780     1.6030 hc         1 NS5       0.041700
     82 H272        -8.1440    -3.5070    -0.1350 hc         1 NS5       0.041700
     83 H273        -6.9760    -4.6210     0.5570 hc         1 NS5       0.041700
     84 H28         -6.0160    -0.4100     0.5770 ha         1 NS5       0.120000
     85 H29         -8.8620    -1.4960     0.8240 ha         1 NS5       0.121000
     86 H30         -7.6310     1.3510     0.7570 ha         1 NS5       0.119000
     87 H321       -11.4360     0.4960     1.9810 hc         1 NS5       0.040700
     88 H322       -11.6610     0.5800     0.2500 hc         1 NS5       0.040700
     89 H323       -10.7680    -0.7610     0.9460 hc         1 NS5       0.040700
     90 H331       -10.6510     2.8900     1.6810 hc         1 NS5       0.047200
     91 H332        -8.9870     3.1440     1.1760 hc         1 NS5       0.047200
     92 H341        -9.6360     2.9460    -1.1980 hc         1 NS5       0.046200
     93 H342       -11.2910     2.5960    -0.7530 hc         1 NS5       0.046200
     94 H351       -11.6220     4.8450     0.2050 ha         1 NS5       0.114000
     95 HM31        -8.9880     5.9040    -2.7620 hc         1 NS5       0.038867
     96 HM32        -8.0180     6.0780    -1.3160 hc         1 NS5       0.038867
     97 HM33        -8.4840     4.4730    -1.8660 hc         1 NS5       0.038867
     98 HM41       -11.4480     7.1000    -0.1370 hc         1 NS5       0.038867
     99 HM42        -9.7810     7.6640    -0.3000 hc         1 NS5       0.038867
    100 HM43       -10.7860     7.5010    -1.7240 hc         1 NS5       0.038867
@<TRIPOS>BOND
     1     1     2 1   
     2     1     3 1   
     3     1     4 1   
     4     1    41 1   
     5     2    42 1   
     6     2    43 1   
     7     2    44 1   
     8     3    45 1   
     9     3    46 1   
    10     3    47 1   
    11     4     5 1   
    12     4    48 1   
    13     4    49 1   
    14     5     6 1   
    15     5    50 1   
    16     5    51 1   
    17     6     7 1   
    18     6    52 1   
    19     6    53 1   
    20     7     8 1   
    21     7     9 2   
    22     8    54 1   
    23     8    55 1   
    24     8    56 1   
    25     9    10 1   
    26     9    57 1   
    27    10    11 1   
    28    10    58 1   
    29    10    59 1   
    30    11    12 1   
    31    11    60 1   
    32    11    61 1   
    33    12    13 1   
    34    12    14 2   
    35    13    62 1   
    36    13    63 1   
    37    13    64 1   
    38    14    15 1   
    39    14    65 1   
    40    15    16 2   
    41    15    66 1   
    42    16    17 1   
    43    16    67 1   
    44    17    18 1   
    45    17    19 2   
    46    18    68 1   
    47    18    69 1   
    48    18    70 1   
    49    19    20 1   
    50    19    71 1   
    51    20    21 2   
    52    20    72 1   
    53    21    22 1   
    54    21    73 1   
    55    22    23 2   
    56    22    74 1   
    57    23    24 1   
    58    23    25 1   
    59    24    75 1   
    60    24    76 1   
    61    24    77 1   
    62    25    26 2   
    63    25    78 1   
    64    26    27 1   
    65    26    79 1   
    66    27    28 2   
    67    27    80 1   
    68    28    29 1   
    69    28    30 1   
    70    29    81 1   
    71    29    82 1   
    72    29    83 1   
    73    30    31 2   
    74    30    84 1   
    75    31    32 1   
    76    31    85 1   
    77    32    33 2   
    78    32    86 1   
    79    33    34 1   
    80    33    35 1   
    81    34    87 1   
    82    34    88 1   
    83    34    89 1   
    84    35    36 1   
    85    35    90 1   
    86    35    91 1   
    87    36    37 1   
    88    36    92 1   
    89    36    93 1   
    90    37    38 2   
    91    37    94 1   
    92    38    39 1   
    93    38    40 1   
    94    39    95 1   
    95    39    96 1   
    96    39    97 1   
    97    40    98 1   
    98    40    99 1   
    99    40   100 1   
@<TRIPOS>SUBSTRUCTURE
     1 NS5         1 TEMP              0 ****  ****    0 ROOT
