@<TRIPOS>MOLECULE
NS6
   54    57     1     0     0
SMALL
abcg2


@<TRIPOS>ATOM
      1 C2          -5.5030     1.2260     1.6050 c5         1 NS6      -0.075900
      2 C3          -6.9370     0.9800     1.1360 c5         1 NS6      -0.077400
      3 C4          -6.7720    -0.0760     0.0470 c5         1 NS6      -0.077400
      4 C5          -5.7410    -1.0300     0.6510 c5         1 NS6      -0.075900
      5 C1          -4.7880    -0.1380     1.4850 c5         1 NS6      -0.056700
      6 C6          -3.3800     0.0050     0.9150 c6         1 NS6       0.203500
      7 C9          -2.5610    -1.2770     1.0100 c6         1 NS6      -0.093100
      8 N1          -3.4380     0.4700    -0.4780 n7         1 NS6      -0.843300
      9 S1          -2.0090     1.0200    -1.0630 sy         1 NS6       1.144600
     10 O2          -2.0980     1.0670    -2.5120 o          1 NS6      -0.526500
     11 O1          -1.6550     2.2270    -0.3390 o          1 NS6      -0.526500
     12 C7          -0.8550    -0.2430    -0.5900 ca         1 NS6      -0.313500
     13 C10          0.3940    -0.2160    -1.1950 ca         1 NS6       0.086000
     14 C8          -1.2040    -1.2020     0.3600 ca         1 NS6       0.049700
     15 C13         -0.2400    -2.1580     0.6850 ca         1 NS6      -0.147000
     16 C12          1.0100    -2.1560     0.0960 ca         1 NS6       0.032000
     17 C11          1.3220    -1.1780    -0.8430 ca         1 NS6      -0.318500
     18 S2           2.9440    -1.1250    -1.5600 sy         1 NS6       1.156600
     19 O3           3.4470    -2.4860    -1.6310 o          1 NS6      -0.530000
     20 O4           2.8610    -0.3180    -2.7640 o          1 NS6      -0.530000
     21 N2           3.8930    -0.3090    -0.4870 n3         1 NS6      -0.721500
     22 C14          4.3200    -1.0110     0.7240 c6         1 NS6       0.191800
     23 C15          5.5040    -0.2730     1.3170 c6         1 NS6       0.164800
     24 N3           5.1590     1.1020     1.6070 n3         1 NS6      -0.719600
     25 C18          6.2390     1.7980     2.2680 c3         1 NS6       0.154100
     26 C16          4.7400     1.7830     0.4000 c6         1 NS6       0.164800
     27 C17          3.5450     1.0890    -0.2250 c6         1 NS6       0.191800
     28 H2          -5.0250     1.9560     0.9470 hc         1 NS6       0.046700
     29 H2A         -5.4480     1.6240     2.6190 hc         1 NS6       0.046700
     30 H3          -7.5410     0.5750     1.9530 hc         1 NS6       0.046450
     31 H3A         -7.4300     1.8890     0.7880 hc         1 NS6       0.046450
     32 H4          -7.7050    -0.5770    -0.2150 hc         1 NS6       0.046450
     33 H4A         -6.3860     0.3860    -0.8660 hc         1 NS6       0.046450
     34 H5          -6.2460    -1.7320     1.3170 hc         1 NS6       0.046700
     35 H5A         -5.2330    -1.6450    -0.0970 hc         1 NS6       0.046700
     36 H1          -4.6620    -0.5750     2.4790 hc         1 NS6       0.050700
     37 H6          -2.8780     0.7880     1.4920 h1         1 NS6       0.089700
     38 H9          -2.4340    -1.5490     2.0600 hc         1 NS6       0.076200
     39 H9A         -3.1110    -2.1030     0.5450 hc         1 NS6       0.076200
     40 HN1         -3.8590    -0.2030    -1.1140 hn         1 NS6       0.484000
     41 H10          0.6280     0.5340    -1.9390 ha         1 NS6       0.154000
     42 H13         -0.4790    -2.9220     1.4130 ha         1 NS6       0.120000
     43 H12          1.7260    -2.9210     0.3630 ha         1 NS6       0.135000
     44 H14          3.5080    -1.0550     1.4600 h1         1 NS6       0.061700
     45 H14A         4.6190    -2.0270     0.4770 h1         1 NS6       0.061700
     46 H15          5.7910    -0.7750     2.2430 h1         1 NS6       0.045950
     47 H15A         6.3590    -0.3470     0.6240 h1         1 NS6       0.045950
     48 H18          7.1490     1.8740     1.6520 h1         1 NS6       0.034033
     49 H18A         5.9270     2.8100     2.5290 h1         1 NS6       0.034033
     50 H18B         6.5040     1.2800     3.1910 h1         1 NS6       0.034033
     51 H16          4.4490     2.8060     0.6460 h1         1 NS6       0.045950
     52 H16A         5.5510     1.8430    -0.3460 h1         1 NS6       0.045950
     53 H17          3.2870     1.5900    -1.1550 h1         1 NS6       0.061700
     54 H17A         2.6860     1.1520     0.4550 h1         1 NS6       0.061700
@<TRIPOS>BOND
     1     1     2 1   
     2     1     5 1   
     3     1    28 1   
     4     1    29 1   
     5     2     3 1   
     6     2    30 1   
     7     2    31 1   
     8     3     4 1   
     9     3    32 1   
    10     3    33 1   
    11     4     5 1   
    12     4    34 1   
    13     4    35 1   
    14     5     6 1   
    15     5    36 1   
    16     6     7 1   
    17     6     8 1   
    18     6    37 1   
    19     7    14 1   
    20     7    38 1   
    21     7    39 1   
    22     8     9 1   
    23     8    40 1   
    24     9    10 2   
    25     9    11 2   
    26     9    12 1   
    27    12    13 ar  
    28    12    14 ar  
    29    13    17 ar  
    30    13    41 1   
    31    14    15 ar  
    32    15    16 ar  
    33    15    42 1   
    34    16    17 ar  
    35    16    43 1   
    36    17    18 1   
    37    18    19 2   
    38    18    20 2   
    39    18    21 1   
    40    21    22 1   
    41    21    27 1   
    42    22    23 1   
    43    22    44 1   
    44    22    45 1   
    45    23    24 1   
    46    23    46 1   
    47    23    47 1   
    48    24    25 1   
    49    24    26 1   
    50    25    48 1   
    51    25    49 1   
    52    25    50 1   
    53    26    27 1   
    54    26    51 1   
    55    26    52 1   
    56    27    53 1   
    57    27    54 1   
@<TRIPOS>SUBSTRUCTURE
     1 NS6         1 TEMP              0 ****  ****    0 ROOT
