@<TRIPOS>MOLECULE
NS6
   54    57     1     0     0
SMALL
No Charge or Current Charge


@<TRIPOS>ATOM
      1 C2          -4.9990     1.4950     1.4670 c5         1 NS6      -0.075900
      2 C3          -6.3730     1.1640     2.1170 c5         1 NS6      -0.077400
      3 C4          -6.8010    -0.1990     1.4810 c5         1 NS6      -0.077400
      4 C5          -5.6450    -0.5680     0.5060 c5         1 NS6      -0.075900
      5 C1          -4.4180     0.0790     1.2070 c5         1 NS6      -0.056700
      6 C6          -3.0590     0.0360     0.4400 c6         1 NS6       0.203500
      7 C9          -2.5570    -1.4130     0.2590 c6         1 NS6      -0.093100
      8 N1          -3.1760     0.7230    -0.8590 n7         1 NS6      -0.843300
      9 S1          -1.7910     0.8230    -1.7870 sy         1 NS6       1.144600
     10 O2          -2.2170     0.3880    -3.1170 o          1 NS6      -0.526500
     11 O1          -1.2200     2.1550    -1.5730 o          1 NS6      -0.526500
     12 C7          -0.6810    -0.4340    -1.1430 ca         1 NS6      -0.313500
     13 C10          0.6560    -0.4240    -1.5820 ca         1 NS6       0.086000
     14 C8          -1.1280    -1.4300    -0.2570 ca         1 NS6       0.049700
     15 C13         -0.2330    -2.4230     0.1790 ca         1 NS6      -0.147000
     16 C12          1.1010    -2.4210    -0.2550 ca         1 NS6       0.032000
     17 C11          1.5500    -1.4130    -1.1290 ca         1 NS6      -0.318500
     18 S2           3.2580    -1.3950    -1.6850 sy         1 NS6       1.156600
     19 O3           3.8300    -2.7410    -1.5710 o          1 NS6      -0.530000
     20 O4           3.3610    -0.6430    -2.9410 o          1 NS6      -0.530000
     21 N2           4.0410    -0.4480    -0.5040 n3         1 NS6      -0.721500
     22 C14          4.0610    -1.0400     0.8660 c6         1 NS6       0.191800
     23 C15          4.9240    -0.2000     1.8580 c6         1 NS6       0.164800
     24 N3           4.4810     1.2260     1.9260 n3         1 NS6      -0.719600
     25 C18          5.2730     2.0280     2.8810 c3         1 NS6       0.154100
     26 C16          4.4540     1.8170     0.5540 c6         1 NS6       0.164800
     27 C17          3.5920     0.9740    -0.4360 c6         1 NS6       0.191800
     28 H2          -5.1290     2.0630     0.5380 hc         1 NS6       0.046700
     29 H2A         -4.3620     2.0950     2.1260 hc         1 NS6       0.046700
     30 H3          -6.2790     1.0690     3.2050 hc         1 NS6       0.046450
     31 H3A         -7.1080     1.9560     1.9310 hc         1 NS6       0.046450
     32 H4          -6.9190    -0.9650     2.2570 hc         1 NS6       0.046450
     33 H4A         -7.7620    -0.1280     0.9590 hc         1 NS6       0.046450
     34 H5          -5.5440    -1.6520     0.3860 hc         1 NS6       0.046700
     35 H5A         -5.8220    -0.1450    -0.4900 hc         1 NS6       0.046700
     36 H1          -4.2170    -0.4210     2.1640 hc         1 NS6       0.050700
     37 H6          -2.3220     0.5750     1.0580 h1         1 NS6       0.089700
     38 H9          -2.6040    -1.9390     1.2220 hc         1 NS6       0.076200
     39 H9A         -3.2060    -1.9700    -0.4300 hc         1 NS6       0.076200
     40 HN1         -3.7840     0.1980    -1.4830 hn         1 NS6       0.484000
     41 H10          0.9950     0.3480    -2.2740 ha         1 NS6       0.154000
     42 H13         -0.5690    -3.1980     0.8640 ha         1 NS6       0.120000
     43 H12          1.7800    -3.1980     0.0950 ha         1 NS6       0.135000
     44 H14          3.0410    -1.1080     1.2720 h1         1 NS6       0.061700
     45 H14A         4.4690    -2.0620     0.8450 h1         1 NS6       0.061700
     46 H15          4.8670    -0.6650     2.8530 h1         1 NS6       0.045950
     47 H15A         5.9750    -0.2550     1.5370 h1         1 NS6       0.045950
     48 H18          6.3270     2.0760     2.5750 h1         1 NS6       0.034033
     49 H18A         4.8860     3.0540     2.9410 h1         1 NS6       0.034033
     50 H18B         5.2270     1.5900     3.8870 h1         1 NS6       0.034033
     51 H16          4.0510     2.8400     0.5870 h1         1 NS6       0.045950
     52 H16A         5.4760     1.8870     0.1510 h1         1 NS6       0.045950
     53 H17          3.6500     1.4500    -1.4260 h1         1 NS6       0.061700
     54 H17A         2.5430     1.0320    -0.1110 h1         1 NS6       0.061700
@<TRIPOS>BOND
     1     1     2 1   
     2     1     5 1   
     3     1    28 1   
     4     1    29 1   
     5     2     3 1   
     6     2    30 1   
     7     2    31 1   
     8     3     4 1   
     9     3    32 1   
    10     3    33 1   
    11     4     5 1   
    12     4    34 1   
    13     4    35 1   
    14     5     6 1   
    15     5    36 1   
    16     6     7 1   
    17     6     8 1   
    18     6    37 1   
    19     7    14 1   
    20     7    38 1   
    21     7    39 1   
    22     8     9 1   
    23     8    40 1   
    24     9    10 2   
    25     9    11 2   
    26     9    12 1   
    27    12    13 ar  
    28    12    14 ar  
    29    13    17 ar  
    30    13    41 1   
    31    14    15 ar  
    32    15    16 ar  
    33    15    42 1   
    34    16    17 ar  
    35    16    43 1   
    36    17    18 1   
    37    18    19 2   
    38    18    20 2   
    39    18    21 1   
    40    21    22 1   
    41    21    27 1   
    42    22    23 1   
    43    22    44 1   
    44    22    45 1   
    45    23    24 1   
    46    23    46 1   
    47    23    47 1   
    48    24    25 1   
    49    24    26 1   
    50    25    48 1   
    51    25    49 1   
    52    25    50 1   
    53    26    27 1   
    54    26    51 1   
    55    26    52 1   
    56    27    53 1   
    57    27    54 1   
@<TRIPOS>SUBSTRUCTURE
     1 NS6         1 TEMP              0 ****  ****    0 ROOT
