@<TRIPOS>MOLECULE
NS7
   57    60     1     0     0
SMALL
No Charge or Current Charge


@<TRIPOS>ATOM
      1 C2          -6.4000     0.4730    -0.2550 c5         1 NS7      -0.074400
      2 C3          -7.6990    -0.3740    -0.3270 c5         1 NS7      -0.080900
      3 C4          -7.4180    -1.6020     0.5960 c5         1 NS7      -0.080900
      4 C5          -5.9330    -1.4440     1.0380 c5         1 NS7      -0.074400
      5 C1          -5.3110    -0.6280    -0.1300 c5         1 NS7      -0.061700
      6 C6          -3.8660    -0.0960     0.1120 c6         1 NS7       0.206500
      7 C9          -2.8520    -1.2480     0.2930 c6         1 NS7      -0.091100
      8 N1          -3.4760     0.7630    -1.0170 n7         1 NS7      -0.849300
      9 S1          -2.0650     1.6210    -0.7910 sy         1 NS7       1.149600
     10 O1          -2.3990     2.7590     0.0690 o          1 NS7      -0.525500
     11 O2          -1.5190     1.8300    -2.1320 o          1 NS7      -0.525500
     12 C7          -0.9860     0.4910     0.0840 ca         1 NS7      -0.321500
     13 C10          0.3400     0.8970     0.3170 ca         1 NS7       0.083000
     14 C8          -1.4230    -0.7700     0.5240 ca         1 NS7       0.054700
     15 C13         -0.5180    -1.6180     1.1830 ca         1 NS7      -0.157000
     16 C12          0.8140    -1.2300     1.4230 ca         1 NS7       0.088700
     17 C14          1.7290    -2.2230     2.1370 c3         1 NS7      -0.084800
     18 C11          1.2450     0.0490     0.9870 ca         1 NS7      -0.283500
     19 S2           2.9330     0.6460     1.2320 sy         1 NS7       1.153600
     20 O3           3.0720     1.9960     0.6770 o          1 NS7      -0.540500
     21 O4           3.3300     0.3350     2.6090 o          1 NS7      -0.540500
     22 N2           3.8470    -0.3900     0.2430 n3         1 NS7      -0.756500
     23 C15          5.3090    -0.1010     0.2510 c6         1 NS7       0.202300
     24 C16          6.1260    -1.1560    -0.5580 c6         1 NS7       0.163300
     25 N3           5.6370    -1.2950    -1.9640 n3         1 NS7      -0.714600
     26 C19          6.4210    -2.2710    -2.7490 c3         1 NS7       0.153100
     27 C17          4.1720    -1.5920    -1.9660 c6         1 NS7       0.163300
     28 C18          3.3490    -0.5420    -1.1570 c6         1 NS7       0.202300
     29 H2          -6.2710     1.0990    -1.1450 hc         1 NS7       0.048700
     30 H2A         -6.4030     1.1430     0.6140 hc         1 NS7       0.048700
     31 H3          -8.5770     0.1970    -0.0030 hc         1 NS7       0.045950
     32 H3A         -7.8950    -0.7010    -1.3550 hc         1 NS7       0.045950
     33 H4          -8.0910    -1.6290     1.4610 hc         1 NS7       0.045950
     34 H4A         -7.5700    -2.5390     0.0490 hc         1 NS7       0.045950
     35 H5          -5.8580    -0.9030     1.9900 hc         1 NS7       0.048700
     36 H5A         -5.4510    -2.4170     1.1820 hc         1 NS7       0.048700
     37 H1          -5.2650    -1.2330    -1.0450 hc         1 NS7       0.047700
     38 H6          -3.8820     0.5060     1.0360 h1         1 NS7       0.092700
     39 H9          -3.1560    -1.8660     1.1470 hc         1 NS7       0.075200
     40 H9A         -2.8730    -1.9110    -0.5830 hc         1 NS7       0.075200
     41 HN1         -3.2370     0.1900    -1.8220 hn         1 NS7       0.480000
     42 H10          0.6620     1.8790    -0.0320 ha         1 NS7       0.160000
     43 H13         -0.8570    -2.5960     1.5130 ha         1 NS7       0.115000
     44 H14          2.6600    -2.3910     1.5850 hc         1 NS7       0.067700
     45 H14A         1.9840    -1.8740     3.1440 hc         1 NS7       0.067700
     46 H14B         1.2520    -3.2030     2.2510 hc         1 NS7       0.067700
     47 H15          5.5050     0.8930    -0.1780 h1         1 NS7       0.063200
     48 H15A         5.6950    -0.0870     1.2820 h1         1 NS7       0.063200
     49 H16          7.1850    -0.8610    -0.5510 h1         1 NS7       0.040700
     50 H16A         6.0570    -2.1230    -0.0380 h1         1 NS7       0.040700
     51 H19          6.3360    -3.2790    -2.3200 h1         1 NS7       0.033367
     52 H19A         6.0650    -2.3090    -3.7870 h1         1 NS7       0.033367
     53 H19B         7.4830    -1.9920    -2.7660 h1         1 NS7       0.033367
     54 H17          3.7900    -1.6190    -2.9970 h1         1 NS7       0.040700
     55 H17A         3.9890    -2.5860    -1.5300 h1         1 NS7       0.040700
     56 H18          2.2980    -0.8630    -1.1720 h1         1 NS7       0.063200
     57 H18A         3.3980     0.4220    -1.6860 h1         1 NS7       0.063200
@<TRIPOS>BOND
     1     1     2 1   
     2     1     5 1   
     3     1    29 1   
     4     1    30 1   
     5     2     3 1   
     6     2    31 1   
     7     2    32 1   
     8     3     4 1   
     9     3    33 1   
    10     3    34 1   
    11     4     5 1   
    12     4    35 1   
    13     4    36 1   
    14     5     6 1   
    15     5    37 1   
    16     6     7 1   
    17     6     8 1   
    18     6    38 1   
    19     7    14 1   
    20     7    39 1   
    21     7    40 1   
    22     8     9 1   
    23     8    41 1   
    24     9    10 2   
    25     9    11 2   
    26     9    12 1   
    27    12    13 ar  
    28    12    14 ar  
    29    13    18 ar  
    30    13    42 1   
    31    14    15 ar  
    32    15    16 ar  
    33    15    43 1   
    34    16    17 1   
    35    16    18 ar  
    36    17    44 1   
    37    17    45 1   
    38    17    46 1   
    39    18    19 1   
    40    19    20 2   
    41    19    21 2   
    42    19    22 1   
    43    22    23 1   
    44    22    28 1   
    45    23    24 1   
    46    23    47 1   
    47    23    48 1   
    48    24    25 1   
    49    24    49 1   
    50    24    50 1   
    51    25    26 1   
    52    25    27 1   
    53    26    51 1   
    54    26    52 1   
    55    26    53 1   
    56    27    28 1   
    57    27    54 1   
    58    27    55 1   
    59    28    56 1   
    60    28    57 1   
@<TRIPOS>SUBSTRUCTURE
     1 NS7         1 TEMP              0 ****  ****    0 ROOT
