@<TRIPOS>MOLECULE
NS7
   57    60     1     0     0
SMALL
bcc


@<TRIPOS>ATOM
      1 C2          -6.3100     0.1960    -0.5280 c5         1 NS7      -0.074400
      2 C3          -7.5170    -0.2560     0.3140 c5         1 NS7      -0.080900
      3 C4          -7.2430    -1.7240     0.6310 c5         1 NS7      -0.080900
      4 C5          -5.7330    -1.7570     0.8320 c5         1 NS7      -0.074400
      5 C1          -5.2010    -0.8590    -0.2940 c5         1 NS7      -0.061700
      6 C6          -3.8480    -0.2410     0.0250 c6         1 NS7       0.206500
      7 C9          -2.7700    -1.2820     0.3060 c6         1 NS7      -0.091100
      8 N1          -3.4400     0.6250    -1.0900 n7         1 NS7      -0.794100
      9 S1          -2.1720     1.6120    -0.7640 sy         1 NS7       1.291200
     10 O1          -2.5980     2.5880     0.2250 o          1 NS7      -0.596300
     11 O2          -1.6290     2.0840    -2.0260 o          1 NS7      -0.596300
     12 C7          -1.0000     0.5390     0.0180 ca         1 NS7      -0.321500
     13 C10          0.2940     1.0080     0.1850 ca         1 NS7       0.065000
     14 C8          -1.3840    -0.7190     0.4720 ca         1 NS7       0.054700
     15 C13         -0.4060    -1.4980     1.0870 ca         1 NS7      -0.175000
     16 C12          0.9040    -1.0780     1.2720 ca         1 NS7       0.088700
     17 C14          1.8740    -1.9970     1.9480 c3         1 NS7      -0.084800
     18 C11          1.2330     0.2060     0.8050 ca         1 NS7      -0.283500
     19 S2           2.8600     0.8870     1.0220 sy         1 NS7       1.295200
     20 O3           2.8370     2.2450     0.4900 o          1 NS7      -0.611300
     21 O4           3.2830     0.7080     2.4020 o          1 NS7      -0.611300
     22 N2           3.7710    -0.1160     0.0800 n3         1 NS7      -0.756500
     23 C15          5.1470    -0.3910     0.4950 c6         1 NS7       0.202300
     24 C16          5.6420    -1.6070    -0.2630 c6         1 NS7       0.163300
     25 N3           5.5410    -1.4050    -1.6930 n3         1 NS7      -0.714600
     26 C19          6.1120    -2.5070    -2.4330 c3         1 NS7       0.153100
     27 C17          4.1660    -1.1590    -2.0700 c6         1 NS7       0.163300
     28 C18          3.6300     0.0710    -1.3640 c6         1 NS7       0.202300
     29 H2          -6.5630     0.2520    -1.5870 hc         1 NS7       0.048700
     30 H2A         -5.9760     1.1940    -0.2400 hc         1 NS7       0.048700
     31 H3          -7.5570     0.3160     1.2440 hc         1 NS7       0.045950
     32 H3A         -8.4680    -0.1000    -0.1970 hc         1 NS7       0.045950
     33 H4          -7.7970    -2.0880     1.4980 hc         1 NS7       0.045950
     34 H4A         -7.5180    -2.3550    -0.2190 hc         1 NS7       0.045950
     35 H5          -5.4810    -1.3280     1.8080 hc         1 NS7       0.048700
     36 H5A         -5.3190    -2.7660     0.8020 hc         1 NS7       0.048700
     37 H1          -5.0910    -1.4740    -1.1950 hc         1 NS7       0.047700
     38 H6          -3.9700     0.4010     0.9030 h1         1 NS7       0.092700
     39 H9          -3.0230    -1.8450     1.2060 hc         1 NS7       0.075200
     40 H9A         -2.7460    -2.0110    -0.5130 hc         1 NS7       0.075200
     41 HN1         -3.3050     0.1210    -1.9630 hn         1 NS7       0.424800
     42 H10          0.5700     1.9890    -0.1770 ha         1 NS7       0.178000
     43 H13         -0.6850    -2.4820     1.4440 ha         1 NS7       0.133000
     44 H14          2.7710    -2.1450     1.3470 hc         1 NS7       0.067700
     45 H14A         2.1900    -1.6020     2.9120 hc         1 NS7       0.067700
     46 H14B         1.4170    -2.9690     2.1170 hc         1 NS7       0.067700
     47 H15          5.8010     0.4650     0.2970 h1         1 NS7       0.063200
     48 H15A         5.1740    -0.6030     1.5620 h1         1 NS7       0.063200
     49 H16          6.6880    -1.7740     0.0050 h1         1 NS7       0.040700
     50 H16A         5.0750    -2.4950     0.0670 h1         1 NS7       0.040700
     51 H19          5.6050    -3.4660    -2.2450 h1         1 NS7       0.033367
     52 H19A         6.0580    -2.3040    -3.5030 h1         1 NS7       0.033367
     53 H19B         7.1630    -2.6270    -2.1680 h1         1 NS7       0.033367
     54 H17          4.1120    -0.9850    -3.1460 h1         1 NS7       0.040700
     55 H17A         3.5130    -2.0200    -1.8440 h1         1 NS7       0.040700
     56 H18          2.5780     0.1950    -1.6250 h1         1 NS7       0.063200
     57 H18A         4.1710     0.9610    -1.6980 h1         1 NS7       0.063200
@<TRIPOS>BOND
     1     1     2 1   
     2     1     5 1   
     3     1    29 1   
     4     1    30 1   
     5     2     3 1   
     6     2    31 1   
     7     2    32 1   
     8     3     4 1   
     9     3    33 1   
    10     3    34 1   
    11     4     5 1   
    12     4    35 1   
    13     4    36 1   
    14     5     6 1   
    15     5    37 1   
    16     6     7 1   
    17     6     8 1   
    18     6    38 1   
    19     7    14 1   
    20     7    39 1   
    21     7    40 1   
    22     8     9 1   
    23     8    41 1   
    24     9    10 2   
    25     9    11 2   
    26     9    12 1   
    27    12    13 ar  
    28    12    14 ar  
    29    13    18 ar  
    30    13    42 1   
    31    14    15 ar  
    32    15    16 ar  
    33    15    43 1   
    34    16    17 1   
    35    16    18 ar  
    36    17    44 1   
    37    17    45 1   
    38    17    46 1   
    39    18    19 1   
    40    19    20 2   
    41    19    21 2   
    42    19    22 1   
    43    22    23 1   
    44    22    28 1   
    45    23    24 1   
    46    23    47 1   
    47    23    48 1   
    48    24    25 1   
    49    24    49 1   
    50    24    50 1   
    51    25    26 1   
    52    25    27 1   
    53    26    51 1   
    54    26    52 1   
    55    26    53 1   
    56    27    28 1   
    57    27    54 1   
    58    27    55 1   
    59    28    56 1   
    60    28    57 1   
@<TRIPOS>SUBSTRUCTURE
     1 NS7         1 TEMP              0 ****  ****    0 ROOT
