@<TRIPOS>MOLECULE
NS8
   18    18     1     0     0
SMALL
No Charge or Current Charge


@<TRIPOS>ATOM
      1 OAA         -3.2940    -1.1830     0.1130 o          1 NS8      -0.405000
      2 NAK         -2.9910     0.0110     0.0120 no         1 NS8       0.664100
      3 OAB         -3.8120     0.9300    -0.0710 o          1 NS8      -0.405000
      4 CAD         -1.5810     0.3730    -0.0090 c2         1 NS8      -0.300100
      5 CAC         -0.5720    -0.5330     0.0710 ce         1 NS8      -0.041200
      6 CAJ          0.8870    -0.2080     0.0480 ca         1 NS8      -0.097800
      7 CAH          1.8230    -1.2620    -0.0130 ca         1 NS8      -0.072500
      8 CAF          3.2030    -0.9950    -0.0350 ca         1 NS8      -0.116000
      9 CAE          3.6640     0.3310     0.0070 ca         1 NS8      -0.080000
     10 CAG          2.7410     1.3880     0.0710 ca         1 NS8      -0.116000
     11 CAI          1.3610     1.1220     0.0920 ca         1 NS8      -0.072500
     12 H1          -1.4420     1.4440    -0.1020 h4         1 NS8       0.232000
     13 H2          -0.7940    -1.6010     0.1530 ha         1 NS8       0.210000
     14 H3           1.4830    -2.2950    -0.0470 ha         1 NS8       0.118500
     15 H4           3.9150    -1.8160    -0.0840 ha         1 NS8       0.121500
     16 H5           4.7320     0.5380    -0.0100 ha         1 NS8       0.120000
     17 H6           3.0960     2.4160     0.1060 ha         1 NS8       0.121500
     18 H7           0.6710     1.9590     0.1490 ha         1 NS8       0.118500
@<TRIPOS>BOND
     1     1     2 1   
     2     2     3 1   
     3     2     4 1   
     4     4     5 2   
     5     4    12 1   
     6     5     6 1   
     7     5    13 1   
     8     6     7 ar  
     9     6    11 ar  
    10     7     8 ar  
    11     7    14 1   
    12     8     9 ar  
    13     8    15 1   
    14     9    10 ar  
    15     9    16 1   
    16    10    11 ar  
    17    10    17 1   
    18    11    18 1   
@<TRIPOS>SUBSTRUCTURE
     1 NS8         1 TEMP              0 ****  ****    0 ROOT
