@<TRIPOS>MOLECULE
NS8
   18    18     1     0     0
SMALL
abcg2


@<TRIPOS>ATOM
      1 OAA         -3.1810    -1.2090     0.0250 o          1 NS8      -0.405000
      2 NAK         -2.9090    -0.0280     0.0300 no         1 NS8       0.664100
      3 OAB         -3.7420     0.8550     0.0310 o          1 NS8      -0.405000
      4 CAD         -1.5380     0.3910     0.0350 c2         1 NS8      -0.300100
      5 CAC         -0.5450    -0.5010     0.0240 ce         1 NS8      -0.041200
      6 CAJ          0.8730    -0.1800     0.0240 ca         1 NS8      -0.097800
      7 CAH          1.7870    -1.2370     0.0060 ca         1 NS8      -0.072500
      8 CAF          3.1510    -0.9930     0.0040 ca         1 NS8      -0.116000
      9 CAE          3.6200     0.3130     0.0210 ca         1 NS8      -0.080000
     10 CAG          2.7190     1.3750     0.0400 ca         1 NS8      -0.116000
     11 CAI          1.3580     1.1330     0.0420 ca         1 NS8      -0.072500
     12 H1          -1.4250     1.4640     0.0400 h4         1 NS8       0.232000
     13 H2          -0.7920    -1.5570     0.0160 ha         1 NS8       0.210000
     14 H3           1.4240    -2.2580    -0.0070 ha         1 NS8       0.118500
     15 H4           3.8480    -1.8190    -0.0100 ha         1 NS8       0.121500
     16 H5           4.6840     0.5060     0.0200 ha         1 NS8       0.120000
     17 H6           3.0830     2.3940     0.0530 ha         1 NS8       0.121500
     18 H7           0.6740     1.9710     0.0570 ha         1 NS8       0.118500
@<TRIPOS>BOND
     1     1     2 1   
     2     2     3 1   
     3     2     4 1   
     4     4     5 2   
     5     4    12 1   
     6     5     6 1   
     7     5    13 1   
     8     6     7 ar  
     9     6    11 ar  
    10     7     8 ar  
    11     7    14 1   
    12     8     9 ar  
    13     8    15 1   
    14     9    10 ar  
    15     9    16 1   
    16    10    11 ar  
    17    10    17 1   
    18    11    18 1   
@<TRIPOS>SUBSTRUCTURE
     1 NS8         1 TEMP              0 ****  ****    0 ROOT
