@<TRIPOS>MOLECULE
NS9
   55    57     1     0     0
SMALL
No Charge or Current Charge


@<TRIPOS>ATOM
      1 N1           1.5090    -2.4720    -0.4850 nc         1 NS9      -0.621100
      2 N2           0.7400    -1.3750    -0.1310 na         1 NS9       0.044900
      3 C3           1.2480    -0.1190     0.2210 cc         1 NS9       0.429000
      4 C4           0.2830     0.8210     0.5260 cd         1 NS9      -0.395000
      5 C5          -1.1060     0.5000     0.4790 cd         1 NS9       0.682900
      6 N6          -1.6130    -0.6630     0.1510 nc         1 NS9      -0.795000
      7 C7          -0.6210    -1.5480    -0.1410 cc         1 NS9       0.465500
      8 C8          -0.7840    -2.8460    -0.5270 cd         1 NS9      -0.321800
      9 C9           0.5400    -3.3530    -0.7190 cd         1 NS9       0.414500
     10 N10          2.6050     0.1000     0.2410 nu         1 NS9      -0.963200
     11 C11          3.3010     1.3650     0.4770 c3         1 NS9       0.283100
     12 C12          4.7950     1.1690     0.2680 ca         1 NS9      -0.124300
     13 C13          5.6200     0.7880     1.3460 ca         1 NS9      -0.088500
     14 C14          7.0010     0.6070     1.1520 ca         1 NS9      -0.112000
     15 C15          7.5650     0.8040    -0.1190 ca         1 NS9      -0.094000
     16 C16          6.7480     1.1820    -1.1980 ca         1 NS9      -0.112000
     17 C17          5.3670     1.3640    -1.0050 ca         1 NS9      -0.088500
     18 N18         -1.9830     1.4780     0.7810 nu         1 NS9      -0.921100
     19 C19         -3.4470     1.3590     1.0240 c3         1 NS9       0.199500
     20 C20         -4.2780     1.8690    -0.2010 c3         1 NS9       0.165300
     21 C21         -3.9570     1.1140    -1.5210 c3         1 NS9       0.126600
     22 O22         -4.8420     1.5510    -2.5710 oh         1 NS9      -0.649000
     23 C23         -3.7970     2.1180     2.3430 c3         1 NS9       0.142600
     24 O24         -3.3140     3.4800     2.3210 oh         1 NS9      -0.667000
     25 O25         -5.6920     1.7250     0.0420 oh         1 NS9      -0.632000
     26 C26         -2.0710    -3.6150    -0.7210 c3         1 NS9       0.030500
     27 C27         -2.2420    -4.0460    -2.1930 c3         1 NS9      -0.083100
     28 C28         -2.1500    -4.8190     0.2400 c3         1 NS9      -0.083100
     29 H4           0.5840     1.8200     0.8070 ha         1 NS9       0.133000
     30 H9           0.8150    -4.3530    -1.0290 h4         1 NS9       0.040800
     31 HN10         3.1570    -0.7110    -0.0470 hn         1 NS9       0.534000
     32 H11          2.9320     2.1380    -0.2130 h1         1 NS9       0.052200
     33 H11A         3.1150     1.7170     1.5020 h1         1 NS9       0.052200
     34 H13          5.1900     0.6310     2.3330 ha         1 NS9       0.117000
     35 H14          7.6330     0.3130     1.9880 ha         1 NS9       0.118000
     36 H15          8.6340     0.6630    -0.2690 ha         1 NS9       0.116000
     37 H16          7.1840     1.3330    -2.1830 ha         1 NS9       0.118000
     38 H17          4.7400     1.6540    -1.8460 ha         1 NS9       0.117000
     39 HN18        -1.5430     2.3260     1.1290 hn         1 NS9       0.495000
     40 H19         -3.7230     0.3080     1.1860 h1         1 NS9       0.088700
     41 H20         -4.0300     2.9280    -0.3570 h1         1 NS9       0.095700
     42 H21         -2.9140     1.3080    -1.8040 h1         1 NS9       0.027700
     43 H21A        -4.0640     0.0330    -1.3580 h1         1 NS9       0.027700
     44 HO22        -4.5580     1.0960    -3.3950 ho         1 NS9       0.441000
     45 H23         -4.8830     2.0980     2.5040 h1         1 NS9       0.036200
     46 H23A        -3.3400     1.5770     3.1830 h1         1 NS9       0.036200
     47 HO24        -3.5850     3.8950     3.1710 ho         1 NS9       0.446000
     48 HO25        -6.0890     1.7080    -0.8590 ho         1 NS9       0.435000
     49 H26         -2.9200    -2.9620    -0.4810 hc         1 NS9       0.059700
     50 H27         -1.4430    -4.7320    -2.4970 hc         1 NS9       0.030033
     51 H27A        -3.2040    -4.5530    -2.3380 hc         1 NS9       0.030033
     52 H27B        -2.2150    -3.1710    -2.8540 hc         1 NS9       0.030033
     53 H28         -3.1110    -5.3360     0.1340 hc         1 NS9       0.030033
     54 H28A        -1.3490    -5.5390     0.0350 hc         1 NS9       0.030033
     55 H28B        -2.0570    -4.4860     1.2810 hc         1 NS9       0.030033
@<TRIPOS>BOND
     1     1     2 1   
     2     1     9 2   
     3     2     3 1   
     4     2     7 1   
     5     3     4 2   
     6     3    10 1   
     7     4     5 1   
     8     4    29 1   
     9     5     6 2   
    10     5    18 1   
    11     6     7 1   
    12     7     8 2   
    13     8     9 1   
    14     8    26 1   
    15     9    30 1   
    16    10    11 1   
    17    10    31 1   
    18    11    12 1   
    19    11    32 1   
    20    11    33 1   
    21    12    13 ar  
    22    12    17 ar  
    23    13    14 ar  
    24    13    34 1   
    25    14    15 ar  
    26    14    35 1   
    27    15    16 ar  
    28    15    36 1   
    29    16    17 ar  
    30    16    37 1   
    31    17    38 1   
    32    18    19 1   
    33    18    39 1   
    34    19    20 1   
    35    19    23 1   
    36    19    40 1   
    37    20    21 1   
    38    20    25 1   
    39    20    41 1   
    40    21    22 1   
    41    21    42 1   
    42    21    43 1   
    43    22    44 1   
    44    23    24 1   
    45    23    45 1   
    46    23    46 1   
    47    24    47 1   
    48    25    48 1   
    49    26    27 1   
    50    26    28 1   
    51    26    49 1   
    52    27    50 1   
    53    27    51 1   
    54    27    52 1   
    55    28    53 1   
    56    28    54 1   
    57    28    55 1   
@<TRIPOS>SUBSTRUCTURE
     1 NS9         1 TEMP              0 ****  ****    0 ROOT
