@<TRIPOS>MOLECULE
NS9
   55    57     1     0     0
SMALL
abcg2


@<TRIPOS>ATOM
      1 N1           1.5150    -2.4620    -0.3640 nc         1 NS9      -0.621100
      2 N2           0.7410    -1.3780    -0.1960 na         1 NS9       0.044900
      3 C3           1.2130    -0.1060    -0.0330 cc         1 NS9       0.429000
      4 C4           0.2680     0.8780     0.1340 cd         1 NS9      -0.395000
      5 C5          -1.1100     0.5200     0.1290 cd         1 NS9       0.682900
      6 N6          -1.5400    -0.7180    -0.0190 nc         1 NS9      -0.795000
      7 C7          -0.6040    -1.6640    -0.1820 cc         1 NS9       0.465500
      8 C8          -0.6930    -3.0400    -0.3540 cd         1 NS9      -0.321800
      9 C9           0.6440    -3.4540    -0.4580 cd         1 NS9       0.414500
     10 N10          2.5390     0.0550    -0.0520 nu         1 NS9      -0.963200
     11 C11          3.1710     1.3410     0.1590 c3         1 NS9       0.283100
     12 C12          4.6650     1.1880     0.1210 ca         1 NS9      -0.124300
     13 C13          5.3910     1.0530     1.3000 ca         1 NS9      -0.088500
     14 C14          6.7690     0.8800     1.2640 ca         1 NS9      -0.112000
     15 C15          7.4310     0.8380     0.0450 ca         1 NS9      -0.094000
     16 C16          6.7130     0.9690    -1.1370 ca         1 NS9      -0.112000
     17 C17          5.3370     1.1430    -1.0980 ca         1 NS9      -0.088500
     18 N18         -2.0250     1.5120     0.2640 nu         1 NS9      -0.921100
     19 C19         -3.4350     1.2740     0.4740 c3         1 NS9       0.199500
     20 C20         -4.2400     2.4170    -0.1710 c3         1 NS9       0.165300
     21 C21         -4.0380     2.4290    -1.6790 c3         1 NS9       0.126600
     22 O22         -4.7180     3.5370    -2.2210 oh         1 NS9      -0.649000
     23 C23         -3.7540     1.0750     1.9490 c3         1 NS9       0.142600
     24 O24         -3.4470     2.2620     2.6450 oh         1 NS9      -0.667000
     25 O25         -5.6040     2.3410     0.1710 oh         1 NS9      -0.632000
     26 C26         -1.9410    -3.8650    -0.3940 c3         1 NS9       0.030500
     27 C27         -2.0920    -4.6020    -1.7250 c3         1 NS9      -0.083100
     28 C28         -1.9950    -4.8510     0.7740 c3         1 NS9      -0.083100
     29 H4           0.5680     1.9070     0.2680 ha         1 NS9       0.133000
     30 H9           1.0090    -4.4620    -0.6000 h4         1 NS9       0.040800
     31 HN10         3.1120    -0.7710    -0.1280 hn         1 NS9       0.534000
     32 H11          2.8460     2.0430    -0.6150 h1         1 NS9       0.052200
     33 H11A         2.8600     1.7600     1.1210 h1         1 NS9       0.052200
     34 H13          4.8770     1.0890     2.2530 ha         1 NS9       0.117000
     35 H14          7.3240     0.7790     2.1870 ha         1 NS9       0.118000
     36 H15          8.5050     0.7080     0.0150 ha         1 NS9       0.116000
     37 H16          7.2260     0.9390    -2.0900 ha         1 NS9       0.118000
     38 H17          4.7800     1.2530    -2.0210 ha         1 NS9       0.117000
     39 HN18        -1.6730     2.4080     0.5620 hn         1 NS9       0.495000
     40 H19         -3.6900     0.3390    -0.0310 h1         1 NS9       0.088700
     41 H20         -3.8900     3.3720     0.2340 h1         1 NS9       0.095700
     42 H21         -2.9650     2.4690    -1.8960 h1         1 NS9       0.027700
     43 H21A        -4.4110     1.4800    -2.0950 h1         1 NS9       0.027700
     44 HO22        -4.5350     3.5640    -3.1640 ho         1 NS9       0.441000
     45 H23         -4.8060     0.7920     2.0640 h1         1 NS9       0.036200
     46 H23A        -3.1560     0.2280     2.3090 h1         1 NS9       0.036200
     47 HO24        -3.5790     2.1050     3.5830 ho         1 NS9       0.446000
     48 HO25        -5.9780     1.5450    -0.2230 ho         1 NS9       0.435000
     49 H26         -2.7850    -3.1750    -0.2930 hc         1 NS9       0.059700
     50 H27         -1.2830    -5.3220    -1.8700 hc         1 NS9       0.030033
     51 H27A        -3.0330    -5.1550    -1.7600 hc         1 NS9       0.030033
     52 H27B        -2.0780    -3.9100    -2.5680 hc         1 NS9       0.030033
     53 H28         -2.9220    -5.4270     0.7580 hc         1 NS9       0.030033
     54 H28A        -1.1640    -5.5580     0.7240 hc         1 NS9       0.030033
     55 H28B        -1.9370    -4.3340     1.7330 hc         1 NS9       0.030033
@<TRIPOS>BOND
     1     1     2 1   
     2     1     9 2   
     3     2     3 1   
     4     2     7 1   
     5     3     4 2   
     6     3    10 1   
     7     4     5 1   
     8     4    29 1   
     9     5     6 2   
    10     5    18 1   
    11     6     7 1   
    12     7     8 2   
    13     8     9 1   
    14     8    26 1   
    15     9    30 1   
    16    10    11 1   
    17    10    31 1   
    18    11    12 1   
    19    11    32 1   
    20    11    33 1   
    21    12    13 ar  
    22    12    17 ar  
    23    13    14 ar  
    24    13    34 1   
    25    14    15 ar  
    26    14    35 1   
    27    15    16 ar  
    28    15    36 1   
    29    16    17 ar  
    30    16    37 1   
    31    17    38 1   
    32    18    19 1   
    33    18    39 1   
    34    19    20 1   
    35    19    23 1   
    36    19    40 1   
    37    20    21 1   
    38    20    25 1   
    39    20    41 1   
    40    21    22 1   
    41    21    42 1   
    42    21    43 1   
    43    22    44 1   
    44    23    24 1   
    45    23    45 1   
    46    23    46 1   
    47    24    47 1   
    48    25    48 1   
    49    26    27 1   
    50    26    28 1   
    51    26    49 1   
    52    27    50 1   
    53    27    51 1   
    54    27    52 1   
    55    28    53 1   
    56    28    54 1   
    57    28    55 1   
@<TRIPOS>SUBSTRUCTURE
     1 NS9         1 TEMP              0 ****  ****    0 ROOT
