@<TRIPOS>MOLECULE
NSA
   19    19     1     0     0
SMALL
abcg2


@<TRIPOS>ATOM
      1 CL1          0.8680    -1.3400     2.9100 cl         1 NSA      -0.192500
      2 CL2         -1.1880     0.7160     3.0100 cl         1 NSA      -0.192500
      3 C1          -0.4610    -0.5670     2.0320 c3         1 NSA       0.204300
      4 C2           0.1080     0.0610     0.7590 c          1 NSA       0.606100
      5 O1           0.9470     0.9320     0.8220 o          1 NSA      -0.532100
      6 C5          -0.6280    -0.6450    -4.0100 ca         1 NSA      -0.083000
      7 C6           0.2700     0.3320    -4.4190 ca         1 NSA      -0.130000
      8 C7           0.9540     1.0620    -3.4590 ca         1 NSA      -0.083000
      9 C8           0.7580     0.8350    -2.1030 ca         1 NSA      -0.144000
     10 N1          -0.4230    -0.4640    -0.3590 ns         1 NSA      -0.136000
     11 C4          -0.8350    -0.8840    -2.6630 ca         1 NSA      -0.144000
     12 C3          -0.1450    -0.1480    -1.6980 ca         1 NSA      -0.028000
     13 H1          -1.2240    -1.3220     1.8550 h2         1 NSA       0.095700
     14 H5          -1.1740    -1.2280    -4.7410 ha         1 NSA       0.116500
     15 H6           0.4330     0.5220    -5.4710 ha         1 NSA       0.118000
     16 H7           1.6570     1.8280    -3.7610 ha         1 NSA       0.116500
     17 H8           1.3070     1.4210    -1.3850 ha         1 NSA       0.128000
     18 HN1         -1.1120    -1.1910    -0.2370 hn         1 NSA       0.154000
     19 H4          -1.5370    -1.6510    -2.3560 ha         1 NSA       0.128000
@<TRIPOS>BOND
     1     1     3 1   
     2     2     3 1   
     3     3     4 1   
     4     3    13 1   
     5     4     5 2   
     6     4    10 1   
     7     6     7 ar  
     8     6    11 ar  
     9     6    14 1   
    10     7     8 ar  
    11     7    15 1   
    12     8     9 ar  
    13     8    16 1   
    14     9    12 ar  
    15     9    17 1   
    16    10    12 1   
    17    10    18 1   
    18    11    12 ar  
    19    11    19 1   
@<TRIPOS>SUBSTRUCTURE
     1 NSA         1 TEMP              0 ****  ****    0 ROOT
