@<TRIPOS>MOLECULE
NSA
   19    19     1     0     0
SMALL
No Charge or Current Charge


@<TRIPOS>ATOM
      1 Cl1          0.8070    -1.4370     3.0940 cl         1 NSA      -0.192500
      2 Cl2         -1.2870     0.6630     3.1750 cl         1 NSA      -0.192500
      3 C1          -0.4570    -0.5640     2.1100 c3         1 NSA       0.204300
      4 C2           0.1350     0.0750     0.8340 c          1 NSA       0.606100
      5 O1           0.9910     0.9560     0.8820 o          1 NSA      -0.532100
      6 C5          -0.6430    -0.6580    -4.0580 ca         1 NSA      -0.083000
      7 C6           0.2600     0.3300    -4.4800 ca         1 NSA      -0.130000
      8 C7           0.9670     1.0830    -3.5290 ca         1 NSA      -0.083000
      9 C8           0.7720     0.8500    -2.1550 ca         1 NSA      -0.144000
     10 N1          -0.3870    -0.4390    -0.3500 ns         1 NSA      -0.136000
     11 C4          -0.8370    -0.8910    -2.6850 ca         1 NSA      -0.144000
     12 C3          -0.1340    -0.1440    -1.7200 ca         1 NSA      -0.028000
     13 H1          -1.2130    -1.3070     1.8380 h2         1 NSA       0.095700
     14 H5          -1.1920    -1.2430    -4.7930 ha         1 NSA       0.116500
     15 H6           0.4120     0.5120    -5.5420 ha         1 NSA       0.118000
     16 H7           1.6660     1.8500    -3.8550 ha         1 NSA       0.116500
     17 H8           1.3360     1.4540    -1.4520 ha         1 NSA       0.128000
     18 HN1         -1.0810    -1.1630    -0.2170 hn         1 NSA       0.154000
     19 H4          -1.5410    -1.6610    -2.3730 ha         1 NSA       0.128000
@<TRIPOS>BOND
     1     1     3 1   
     2     2     3 1   
     3     3     4 1   
     4     3    13 1   
     5     4     5 2   
     6     4    10 1   
     7     6     7 ar  
     8     6    11 ar  
     9     6    14 1   
    10     7     8 ar  
    11     7    15 1   
    12     8     9 ar  
    13     8    16 1   
    14     9    12 ar  
    15     9    17 1   
    16    10    12 1   
    17    10    18 1   
    18    11    12 ar  
    19    11    19 1   
@<TRIPOS>SUBSTRUCTURE
     1 NSA         1 TEMP              0 ****  ****    0 ROOT
