@<TRIPOS>MOLECULE
NSB
   26    25     1     0     0
SMALL
abcg2


@<TRIPOS>ATOM
      1 O50          3.4140    -0.0110    -1.2030 o          1 NSB      -0.673867
      2 S8           2.4050    -0.0150    -0.1280 s6         1 NSB       1.310600
      3 O46          2.4140    -1.2530     0.6760 o          1 NSB      -0.673867
      4 O48          2.4260     1.2090     0.6980 o          1 NSB      -0.673867
      5 C6           0.8130     0.0010    -0.9760 c3         1 NSB      -0.362400
      6 C4          -0.3540     0.0010     0.0010 c3         1 NSB      -0.055400
      7 C2          -1.6510    -0.0110    -0.7860 c3         1 NSB       0.101600
      8 N1          -2.9060    -0.0160     0.0470 n4         1 NSB      -0.498000
      9 C20         -2.9850     1.2040     0.8960 c3         1 NSB       0.076900
     10 C18         -2.9690    -1.2300     0.9060 c3         1 NSB       0.076900
     11 C16         -4.0700    -0.0270    -0.8830 c3         1 NSB       0.076900
     12 H61          0.7830    -0.8790    -1.6230 h1         1 NSB       0.077200
     13 H62          0.7930     0.8870    -1.6130 h1         1 NSB       0.077200
     14 H41         -0.2870     0.8850     0.6360 hc         1 NSB       0.072700
     15 H42         -0.2780    -0.8780     0.6440 hc         1 NSB       0.072700
     16 H21         -1.7050    -0.8970    -1.4200 hx         1 NSB       0.083700
     17 H22         -1.7170     0.8670    -1.4290 hx         1 NSB       0.083700
     18 H201        -2.1940     1.1920     1.6390 hx         1 NSB       0.091811
     19 H202        -2.8880     2.0840     0.2640 hx         1 NSB       0.091811
     20 H203        -3.9480     1.2190     1.3980 hx         1 NSB       0.091811
     21 H181        -3.9300    -1.2490     1.4140 hx         1 NSB       0.091811
     22 H182        -2.8680    -2.1130     0.2810 hx         1 NSB       0.091811
     23 H183        -2.1740    -1.2040     1.6440 hx         1 NSB       0.091811
     24 H161        -4.0420     0.8670    -1.5000 hx         1 NSB       0.091811
     25 H162        -4.0170    -0.9130    -1.5100 hx         1 NSB       0.091811
     26 H163        -4.9880    -0.0430    -0.3010 hx         1 NSB       0.091811
@<TRIPOS>BOND
     1     1     2 1   
     2     2     3 1   
     3     2     4 1   
     4     2     5 1   
     5     5     6 1   
     6     5    12 1   
     7     5    13 1   
     8     6     7 1   
     9     6    14 1   
    10     6    15 1   
    11     7     8 1   
    12     7    16 1   
    13     7    17 1   
    14     8     9 1   
    15     8    10 1   
    16     8    11 1   
    17     9    18 1   
    18     9    19 1   
    19     9    20 1   
    20    10    21 1   
    21    10    22 1   
    22    10    23 1   
    23    11    24 1   
    24    11    25 1   
    25    11    26 1   
@<TRIPOS>SUBSTRUCTURE
     1 NSB         1 TEMP              0 ****  ****    0 ROOT
