@<TRIPOS>MOLECULE
NSB
   26    25     1     0     0
SMALL
No Charge or Current Charge


@<TRIPOS>ATOM
      1 O50          3.4710    -0.0020    -1.2430 o          1 NSB      -0.673867
      2 S8           2.5070    -0.0020    -0.1340 s6         1 NSB       1.310600
      3 O46          2.4900    -1.2390     0.6600 o          1 NSB      -0.673867
      4 O48          2.4830     1.2360     0.6560 o          1 NSB      -0.673867
      5 C6           0.9030    -0.0080    -0.9750 c3         1 NSB      -0.362400
      6 C4          -0.3130    -0.0090    -0.0130 c3         1 NSB      -0.055400
      7 C2          -1.6530    -0.0140    -0.7770 c3         1 NSB       0.101600
      8 N1          -2.9510    -0.0160     0.0470 n4         1 NSB      -0.498000
      9 C20         -3.0310     1.2390     0.9280 c3         1 NSB       0.076900
     10 C18         -3.0250    -1.2700     0.9320 c3         1 NSB       0.076900
     11 C16         -4.1440    -0.0210    -0.9160 c3         1 NSB       0.076900
     12 H61          0.8950    -0.9020    -1.6070 h1         1 NSB       0.077200
     13 H62          0.8900     0.8840    -1.6100 h1         1 NSB       0.077200
     14 H41         -0.2680     0.8740     0.6350 hc         1 NSB       0.072700
     15 H42         -0.2630    -0.8910     0.6370 hc         1 NSB       0.072700
     16 H21         -1.6780    -0.8970    -1.4200 hx         1 NSB       0.083700
     17 H22         -1.6820     0.8660    -1.4230 hx         1 NSB       0.083700
     18 H201        -2.2030     1.2360     1.6400 hx         1 NSB       0.091811
     19 H202        -2.9690     2.1270     0.2950 hx         1 NSB       0.091811
     20 H203        -3.9790     1.2390     1.4700 hx         1 NSB       0.091811
     21 H181        -3.9730    -1.2730     1.4730 hx         1 NSB       0.091811
     22 H182        -2.9580    -2.1590     0.3020 hx         1 NSB       0.091811
     23 H183        -2.1970    -1.2590     1.6430 hx         1 NSB       0.091811
     24 H161        -4.1030     0.8710    -1.5450 hx         1 NSB       0.091811
     25 H162        -4.0980    -0.9140    -1.5420 hx         1 NSB       0.091811
     26 H163        -5.0720    -0.0220    -0.3410 hx         1 NSB       0.091811
@<TRIPOS>BOND
     1     1     2 1   
     2     2     3 1   
     3     2     4 1   
     4     2     5 1   
     5     5     6 1   
     6     5    12 1   
     7     5    13 1   
     8     6     7 1   
     9     6    14 1   
    10     6    15 1   
    11     7     8 1   
    12     7    16 1   
    13     7    17 1   
    14     8     9 1   
    15     8    10 1   
    16     8    11 1   
    17     9    18 1   
    18     9    19 1   
    19     9    20 1   
    20    10    21 1   
    21    10    22 1   
    22    10    23 1   
    23    11    24 1   
    24    11    25 1   
    25    11    26 1   
@<TRIPOS>SUBSTRUCTURE
     1 NSB         1 TEMP              0 ****  ****    0 ROOT
