@<TRIPOS>MOLECULE
NSC
   48    51     1     0     0
SMALL
No Charge or Current Charge


@<TRIPOS>ATOM
      1 C12         -3.4550    -0.6360     0.2040 ca         1 NSC      -0.145000
      2 C3          -4.8530    -0.4050     0.1570 ca         1 NSC      -0.103000
      3 C2          -5.7950    -1.4360     0.3720 ca         1 NSC       0.353500
      4 N1          -5.4350    -2.7300     0.6500 nv         1 NSC      -1.089000
      5 C7          -7.1530    -1.1380     0.3060 ca         1 NSC      -0.268500
      6 C6          -7.5480     0.1720     0.0280 ca         1 NSC       0.406800
      7 C8          -9.0150     0.5490    -0.0490 c3         1 NSC      -0.149400
      8 N5          -6.6650     1.1690    -0.1750 nb         1 NSC      -0.696000
      9 C4          -5.3420     0.8950    -0.1160 ca         1 NSC       0.291500
     10 C9          -4.4180     1.9330    -0.3300 ca         1 NSC      -0.076000
     11 C10         -3.0330     1.7020    -0.2810 ca         1 NSC      -0.092000
     12 C11         -2.5390     0.4090    -0.0120 ca         1 NSC      -0.023000
     13 N13         -1.1530     0.0910     0.0530 ns         1 NSC      -0.166000
     14 C14         -0.0080     0.8590    -0.1030 c          1 NSC       0.662100
     15 O28         -0.0090     2.0600    -0.3450 o          1 NSC      -0.597100
     16 N15          1.1400     0.0940     0.0520 ns         1 NSC      -0.166000
     17 C16          2.5250     0.4160    -0.0120 ca         1 NSC      -0.023000
     18 C17          3.4440    -0.6280     0.1950 ca         1 NSC      -0.145000
     19 C18          4.8410    -0.3930     0.1490 ca         1 NSC      -0.103000
     20 C24          5.7860    -1.4230     0.3530 ca         1 NSC       0.353500
     21 N25          5.4300    -2.7230     0.6060 nv         1 NSC      -1.089000
     22 C23          7.1430    -1.1200     0.2970 ca         1 NSC      -0.268500
     23 C21          7.5350     0.1960     0.0370 ca         1 NSC       0.406800
     24 C20          9.0010     0.5790    -0.0290 c3         1 NSC      -0.149400
     25 N22          6.6490     1.1910    -0.1600 nb         1 NSC      -0.696000
     26 C19          5.3270     0.9120    -0.1080 ca         1 NSC       0.291500
     27 C26          4.4000     1.9490    -0.3140 ca         1 NSC      -0.076000
     28 C27          3.0160     1.7130    -0.2690 ca         1 NSC      -0.092000
     29 H12         -3.0680    -1.6310     0.4080 ha         1 NSC       0.100000
     30 HN11        -4.4680    -2.9370     0.8880 hn         1 NSC       0.465250
     31 HN12        -6.1420    -3.3910     0.9630 hn         1 NSC       0.465250
     32 H7          -7.9000    -1.9080     0.4680 ha         1 NSC       0.118000
     33 H81         -9.3630     0.9460     0.9110 hc         1 NSC       0.051033
     34 H82         -9.1930     1.3120    -0.8150 hc         1 NSC       0.051033
     35 H83         -9.6350    -0.3200    -0.2980 hc         1 NSC       0.051033
     36 H9          -4.7840     2.9340    -0.5390 ha         1 NSC       0.135000
     37 H10         -2.3680     2.5410    -0.4550 ha         1 NSC       0.142000
     38 H13         -0.9720    -0.8850     0.2510 hn         1 NSC       0.142500
     39 H15          0.9620    -0.8820     0.2490 hn         1 NSC       0.142500
     40 H17          3.0600    -1.6250     0.3960 ha         1 NSC       0.100000
     41 H251         4.4640    -3.0100     0.4690 hn         1 NSC       0.465250
     42 H252         6.1390    -3.4530     0.5760 hn         1 NSC       0.465250
     43 H23          7.8930    -1.8890     0.4540 ha         1 NSC       0.118000
     44 H201         9.6270    -0.2870    -0.2700 hc         1 NSC       0.051033
     45 H202         9.1810     1.3400    -0.7970 hc         1 NSC       0.051033
     46 H203         9.3390     0.9810     0.9320 hc         1 NSC       0.051033
     47 H26          4.7630     2.9530    -0.5120 ha         1 NSC       0.135000
     48 H27          2.3480     2.5520    -0.4350 ha         1 NSC       0.142000
@<TRIPOS>BOND
     1     1     2 ar  
     2     1    12 ar  
     3     1    29 1   
     4     2     3 ar  
     5     2     9 ar  
     6     3     4 1   
     7     3     5 ar  
     8     4    30 1   
     9     4    31 1   
    10     5     6 ar  
    11     5    32 1   
    12     6     7 1   
    13     6     8 ar  
    14     7    33 1   
    15     7    34 1   
    16     7    35 1   
    17     8     9 ar  
    18     9    10 ar  
    19    10    11 ar  
    20    10    36 1   
    21    11    12 ar  
    22    11    37 1   
    23    12    13 1   
    24    13    14 1   
    25    13    38 1   
    26    14    15 2   
    27    14    16 1   
    28    16    17 1   
    29    16    39 1   
    30    17    18 ar  
    31    17    28 ar  
    32    18    19 ar  
    33    18    40 1   
    34    19    20 ar  
    35    19    26 ar  
    36    20    21 1   
    37    20    22 ar  
    38    21    41 1   
    39    21    42 1   
    40    22    23 ar  
    41    22    43 1   
    42    23    24 1   
    43    23    25 ar  
    44    24    44 1   
    45    24    45 1   
    46    24    46 1   
    47    25    26 ar  
    48    26    27 ar  
    49    27    28 ar  
    50    27    47 1   
    51    28    48 1   
@<TRIPOS>SUBSTRUCTURE
     1 NSC         1 TEMP              0 ****  ****    0 ROOT
