@<TRIPOS>MOLECULE
NSC
   48    51     1     0     0
SMALL
abcg2


@<TRIPOS>ATOM
      1 C12         -3.3960    -0.8040    -0.1340 ca         1 NSC      -0.145000
      2 C3          -4.7380    -0.4450     0.0880 ca         1 NSC      -0.103000
      3 C2          -5.7570    -1.3940     0.4320 ca         1 NSC       0.353500
      4 N1          -5.4760    -2.7190     0.5310 nv         1 NSC      -1.089000
      5 C7          -7.0380    -0.9090     0.6040 ca         1 NSC      -0.268500
      6 C6          -7.3110     0.4630     0.4540 ca         1 NSC       0.406800
      7 C8          -8.7160     0.9470     0.6580 c3         1 NSC      -0.149400
      8 N5          -6.3940     1.3510     0.1530 nb         1 NSC      -0.696000
      9 C4          -5.1250     0.9090    -0.0290 ca         1 NSC       0.291500
     10 C9          -4.1320     1.8530    -0.3710 ca         1 NSC      -0.076000
     11 C10         -2.8330     1.4890    -0.5940 ca         1 NSC      -0.092000
     12 C11         -2.4470     0.1360    -0.4690 ca         1 NSC      -0.023000
     13 N13         -1.1470    -0.3050    -0.7420 ns         1 NSC      -0.166000
     14 C14          0.0090     0.3830    -0.4910 c          1 NSC       0.662100
     15 O28          0.0420     1.5230    -0.0650 o          1 NSC      -0.597100
     16 N15          1.1310    -0.3440    -0.7940 ns         1 NSC      -0.166000
     17 C16          2.4440     0.0890    -0.5740 ca         1 NSC      -0.023000
     18 C17          3.3720    -0.8110    -0.1040 ca         1 NSC      -0.145000
     19 C18          4.7200    -0.4450     0.0760 ca         1 NSC      -0.103000
     20 C24          5.7220    -1.3560     0.5460 ca         1 NSC       0.353500
     21 N25          5.4130    -2.6450     0.8430 nv         1 NSC      -1.089000
     22 C23          6.9950    -0.8540     0.7280 ca         1 NSC      -0.268500
     23 C21          7.2800     0.4950     0.4470 ca         1 NSC       0.406800
     24 C20          8.6770     0.9970     0.6550 c3         1 NSC      -0.149400
     25 N22          6.3840     1.3410    -0.0030 nb         1 NSC      -0.696000
     26 C19          5.1220     0.8840    -0.1870 ca         1 NSC       0.291500
     27 C26          4.1500     1.7850    -0.6770 ca         1 NSC      -0.076000
     28 C27          2.8520     1.4070    -0.8800 ca         1 NSC      -0.092000
     29 H12         -3.0830    -1.8390    -0.0540 ha         1 NSC       0.100000
     30 HN11        -4.5380    -3.0100     0.7460 hn         1 NSC       0.465250
     31 HN12        -6.1800    -3.3090     0.9430 hn         1 NSC       0.465250
     32 H7          -7.8430    -1.5870     0.8600 ha         1 NSC       0.118000
     33 H81         -9.0500     0.7530     1.6790 hc         1 NSC       0.051033
     34 H82         -8.7880     2.0170     0.4710 hc         1 NSC       0.051033
     35 H83         -9.4100     0.4310    -0.0070 hc         1 NSC       0.051033
     36 H9          -4.4280     2.8890    -0.4740 ha         1 NSC       0.135000
     37 H10         -2.1130     2.2400    -0.8810 ha         1 NSC       0.142000
     38 H13         -1.0680    -1.2840    -0.9690 hn         1 NSC       0.142500
     39 H15          1.0230    -1.3330    -0.9590 hn         1 NSC       0.142500
     40 H17          3.0360    -1.8120     0.1410 ha         1 NSC       0.100000
     41 H251         4.6310    -3.0780     0.3810 hn         1 NSC       0.465250
     42 H252         6.1820    -3.2770     0.9900 hn         1 NSC       0.465250
     43 H23          7.7880    -1.5020     1.0810 ha         1 NSC       0.118000
     44 H201         9.3860     0.4540     0.0290 hc         1 NSC       0.051033
     45 H202         8.7490     2.0560     0.4170 hc         1 NSC       0.051033
     46 H203         8.9920     0.8530     1.6900 hc         1 NSC       0.051033
     47 H26          4.4630     2.7960    -0.9060 ha         1 NSC       0.135000
     48 H27          2.1460     2.1170    -1.2840 ha         1 NSC       0.142000
@<TRIPOS>BOND
     1     1     2 ar  
     2     1    12 ar  
     3     1    29 1   
     4     2     3 ar  
     5     2     9 ar  
     6     3     4 1   
     7     3     5 ar  
     8     4    30 1   
     9     4    31 1   
    10     5     6 ar  
    11     5    32 1   
    12     6     7 1   
    13     6     8 ar  
    14     7    33 1   
    15     7    34 1   
    16     7    35 1   
    17     8     9 ar  
    18     9    10 ar  
    19    10    11 ar  
    20    10    36 1   
    21    11    12 ar  
    22    11    37 1   
    23    12    13 1   
    24    13    14 1   
    25    13    38 1   
    26    14    15 2   
    27    14    16 1   
    28    16    17 1   
    29    16    39 1   
    30    17    18 ar  
    31    17    28 ar  
    32    18    19 ar  
    33    18    40 1   
    34    19    20 ar  
    35    19    26 ar  
    36    20    21 1   
    37    20    22 ar  
    38    21    41 1   
    39    21    42 1   
    40    22    23 ar  
    41    22    43 1   
    42    23    24 1   
    43    23    25 ar  
    44    24    44 1   
    45    24    45 1   
    46    24    46 1   
    47    25    26 ar  
    48    26    27 ar  
    49    27    28 ar  
    50    27    47 1   
    51    28    48 1   
@<TRIPOS>SUBSTRUCTURE
     1 NSC         1 TEMP              0 ****  ****    0 ROOT
