@<TRIPOS>MOLECULE
NSD
   26    25     1     0     0
SMALL
bcc


@<TRIPOS>ATOM
      1 C1          -3.7310    -0.4110     0.0430 c3         1 NSD       0.150300
      2 N1          -4.8990     0.4590     0.0120 n8         1 NSD      -0.883800
      3 C2          -2.4480     0.4050     0.0010 c3         1 NSD      -0.083400
      4 N2           0.0060     0.3270     0.0080 n7         1 NSD      -0.806200
      5 C3          -1.2050    -0.4700     0.0410 c3         1 NSD       0.160800
      6 N3           4.9130     0.4250     0.0020 n8         1 NSD      -0.883800
      7 C4           1.2130    -0.4770     0.0380 c3         1 NSD       0.160800
      8 C5           2.4610     0.3890    -0.0060 c3         1 NSD      -0.083400
      9 C6           3.7390    -0.4350     0.0330 c3         1 NSD       0.150300
     10 H1          -3.7040    -1.0740     0.9210 h1         1 NSD       0.025200
     11 H1A         -3.7690    -1.0660    -0.8320 h1         1 NSD       0.025200
     12 HN1         -5.7390    -0.1060     0.0070 hn         1 NSD       0.336300
     13 HN1A        -4.9370     0.9910     0.8730 hn         1 NSD       0.336300
     14 H2          -2.4450     1.0160    -0.9080 hc         1 NSD       0.054200
     15 H2A         -2.4240     1.0980     0.8480 hc         1 NSD       0.054200
     16 H7           0.0070     0.8820    -0.8410 hn         1 NSD       0.352800
     17 H3          -1.2030    -1.0530     0.9680 h1         1 NSD       0.025700
     18 H3A         -1.2490    -1.2050    -0.7800 h1         1 NSD       0.025700
     19 HN3          4.9570     0.9540     0.8650 hn         1 NSD       0.336300
     20 HN3A         5.7490    -0.1450    -0.0070 hn         1 NSD       0.336300
     21 H5           2.4590     1.0010    -0.9140 hc         1 NSD       0.054200
     22 H5A          2.4450     1.0820     0.8420 hc         1 NSD       0.054200
     23 H6           3.7710    -1.0880    -0.8440 h1         1 NSD       0.025200
     24 H6A          3.7070    -1.1000     0.9090 h1         1 NSD       0.025200
     25 H4           1.2100    -1.0600     0.9650 h1         1 NSD       0.025700
     26 H17          1.2500    -1.2130    -0.7840 h1         1 NSD       0.025700
@<TRIPOS>BOND
     1     1     2 1   
     2     1     3 1   
     3     1    10 1   
     4     1    11 1   
     5     2    12 1   
     6     2    13 1   
     7     3     5 1   
     8     3    14 1   
     9     3    15 1   
    10     4     5 1   
    11     4     7 1   
    12     4    16 1   
    13     5    17 1   
    14     5    18 1   
    15     6     9 1   
    16     6    19 1   
    17     6    20 1   
    18     7     8 1   
    19     7    25 1   
    20     7    26 1   
    21     8     9 1   
    22     8    21 1   
    23     8    22 1   
    24     9    23 1   
    25     9    24 1   
@<TRIPOS>SUBSTRUCTURE
     1 NSD         1 TEMP              0 ****  ****    0 ROOT
