@<TRIPOS>MOLECULE
NSD
   26    25     1     0     0
SMALL
No Charge or Current Charge


@<TRIPOS>ATOM
      1 C1          -3.7960    -0.3870     0.0450 c3         1 NSD       0.150300
      2 N1          -4.9570     0.5210     0.0210 n8         1 NSD      -0.994200
      3 C2          -2.4650     0.3890    -0.0010 c3         1 NSD      -0.083400
      4 N2           0.0060     0.2400    -0.0180 n7         1 NSD      -0.861400
      5 C3          -1.2400    -0.5460     0.0150 c3         1 NSD       0.160800
      6 N3           4.9710     0.4880     0.0090 n8         1 NSD      -0.994200
      7 C4           1.2470    -0.5550     0.0120 c3         1 NSD       0.160800
      8 C5           2.4780     0.3720    -0.0070 c3         1 NSD      -0.083400
      9 C6           3.8040    -0.4130     0.0350 c3         1 NSD       0.150300
     10 H1          -3.8410    -0.9920     0.9610 h1         1 NSD       0.025200
     11 H1A         -3.8600    -1.0610    -0.8210 h1         1 NSD       0.025200
     12 HN1         -5.8180    -0.0340     0.1130 hn         1 NSD       0.391500
     13 HN1A        -4.9500     1.0950     0.8730 hn         1 NSD       0.391500
     14 H2          -2.4380     1.0060    -0.9070 hc         1 NSD       0.054200
     15 H2A         -2.4100     1.0670     0.8590 hc         1 NSD       0.054200
     16 H7           0.0070     0.8000    -0.8800 hn         1 NSD       0.408000
     17 H3          -1.2750    -1.1650     0.9220 h1         1 NSD       0.025700
     18 H3A         -1.2910    -1.2190    -0.8530 h1         1 NSD       0.025700
     19 HN3          4.9700     1.0620     0.8600 hn         1 NSD       0.391500
     20 HN3A         5.8280    -0.0730     0.0980 hn         1 NSD       0.391500
     21 H5           2.4530     0.9890    -0.9130 hc         1 NSD       0.054200
     22 H5A          2.4300     1.0510     0.8530 hc         1 NSD       0.054200
     23 H6           3.8620    -1.0880    -0.8300 h1         1 NSD       0.025200
     24 H6A          3.8470    -1.0180     0.9520 h1         1 NSD       0.025200
     25 H4           1.2800    -1.1740     0.9190 h1         1 NSD       0.025700
     26 H17          1.2910    -1.2280    -0.8560 h1         1 NSD       0.025700
@<TRIPOS>BOND
     1     1     2 1   
     2     1     3 1   
     3     1    10 1   
     4     1    11 1   
     5     2    12 1   
     6     2    13 1   
     7     3     5 1   
     8     3    14 1   
     9     3    15 1   
    10     4     5 1   
    11     4     7 1   
    12     4    16 1   
    13     5    17 1   
    14     5    18 1   
    15     6     9 1   
    16     6    19 1   
    17     6    20 1   
    18     7     8 1   
    19     7    25 1   
    20     7    26 1   
    21     8     9 1   
    22     8    21 1   
    23     8    22 1   
    24     9    23 1   
    25     9    24 1   
@<TRIPOS>SUBSTRUCTURE
     1 NSD         1 TEMP              0 ****  ****    0 ROOT
