@<TRIPOS>MOLECULE
NSE
   27    29     1     0     0
SMALL
No Charge or Current Charge


@<TRIPOS>ATOM
      1 C4          -5.3580     0.8320     0.0230 cg         1 NSE       0.317000
      2 C14          5.7260    -0.5140    -0.0220 ca         1 NSE       0.356900
      3 C5          -2.9150     0.4930     0.0120 ca         1 NSE      -0.029000
      4 C6          -1.9870    -1.7580    -0.0240 ca         1 NSE      -0.036000
      5 C11          1.6260     0.5110     0.0020 cc         1 NSE       0.624500
      6 C7          -0.4180     0.1950     0.0020 cd         1 NSE       0.550500
      7 C8          -1.7870    -0.3600    -0.0030 ca         1 NSE      -0.163500
      8 C9           3.0540     0.1980    -0.0060 ca         1 NSE      -0.201500
      9 C10          3.4920    -1.1420    -0.0270 ca         1 NSE       0.381900
     10 C12          4.0330     1.2170     0.0080 ca         1 NSE      -0.035000
     11 C13          5.3870     0.8460    -0.0010 ca         1 NSE      -0.174000
     12 N1          -6.2770     1.5520     0.0360 n1         1 NSE      -0.436000
     13 N2           0.7030    -0.4910    -0.0110 nc         1 NSE      -0.719000
     14 C3          -4.2190    -0.0430     0.0070 ca         1 NSE      -0.024000
     15 N3           1.1580     1.7490     0.0220 nd         1 NSE      -0.372300
     16 N4           4.8000    -1.4980    -0.0350 nb         1 NSE      -0.671000
     17 O1          -0.2400     1.5450     0.0220 os         1 NSE      -0.081700
     18 C2          -3.2870    -2.2920    -0.0290 ca         1 NSE      -0.124000
     19 C1          -4.4020    -1.4380    -0.0140 ca         1 NSE      -0.045000
     20 H1           6.7700    -0.8280    -0.0290 h4         1 NSE       0.022100
     21 H2          -2.7880     1.5740     0.0280 ha         1 NSE       0.145000
     22 H3          -1.1360    -2.4370    -0.0360 ha         1 NSE       0.144000
     23 H4           2.7850    -1.9710    -0.0380 h4         1 NSE       0.040100
     24 H5           3.7600     2.2710     0.0240 ha         1 NSE       0.137000
     25 H6           6.1690     1.6000     0.0090 ha         1 NSE       0.130000
     26 H7          -3.4300    -3.3700    -0.0450 ha         1 NSE       0.130000
     27 H8          -5.4050    -1.8610    -0.0180 ha         1 NSE       0.132000
@<TRIPOS>BOND
     1     1    12 3   
     2     1    14 1   
     3     2    11 ar  
     4     2    16 ar  
     5     2    20 1   
     6     3     7 ar  
     7     3    14 ar  
     8     3    21 1   
     9     4     7 ar  
    10     4    18 ar  
    11     4    22 1   
    12     5     8 1   
    13     5    13 1   
    14     5    15 2   
    15     6     7 1   
    16     6    13 2   
    17     6    17 1   
    18     8     9 ar  
    19     8    10 ar  
    20     9    16 ar  
    21     9    23 1   
    22    10    11 ar  
    23    10    24 1   
    24    11    25 1   
    25    14    19 ar  
    26    15    17 1   
    27    18    19 ar  
    28    18    26 1   
    29    19    27 1   
@<TRIPOS>SUBSTRUCTURE
     1 NSE         1 TEMP              0 ****  ****    0 ROOT
