@<TRIPOS>MOLECULE
NSE
   27    29     1     0     0
SMALL
abcg2


@<TRIPOS>ATOM
      1 C4          -5.2920     0.8470     0.0040 cg         1 NSE       0.317000
      2 C14          5.6870    -0.4800    -0.0330 ca         1 NSE       0.356900
      3 C5          -2.8820     0.5010     0.0090 ca         1 NSE      -0.029000
      4 C6          -1.9930    -1.7430    -0.0090 ca         1 NSE      -0.036000
      5 C11          1.6210     0.4510     0.0040 cc         1 NSE       0.624500
      6 C7          -0.4300     0.1480     0.0090 cd         1 NSE       0.550500
      7 C8          -1.7920    -0.3620     0.0030 ca         1 NSE      -0.163500
      8 C9           3.0540     0.1750    -0.0080 ca         1 NSE      -0.201500
      9 C10          3.5110    -1.1390    -0.0450 ca         1 NSE       0.381900
     10 C12          3.9980     1.1990     0.0170 ca         1 NSE      -0.035000
     11 C13          5.3390     0.8640     0.0040 ca         1 NSE      -0.174000
     12 N1          -6.2030     1.5510     0.0050 n1         1 NSE      -0.436000
     13 N2           0.6710    -0.5260    -0.0100 nc         1 NSE      -0.719000
     14 C3          -4.1670    -0.0330     0.0010 ca         1 NSE      -0.024000
     15 N3           1.1290     1.6540     0.0310 nd         1 NSE      -0.372300
     16 N4           4.7960    -1.4630    -0.0570 nb         1 NSE      -0.671000
     17 O1          -0.2210     1.4570     0.0340 os         1 NSE      -0.081700
     18 C2          -3.2770    -2.2610    -0.0160 ca         1 NSE      -0.124000
     19 C1          -4.3710    -1.4130    -0.0110 ca         1 NSE      -0.045000
     20 H1           6.7310    -0.7710    -0.0430 h4         1 NSE       0.022100
     21 H2          -2.7520     1.5740     0.0180 ha         1 NSE       0.145000
     22 H3          -1.1420    -2.4100    -0.0130 ha         1 NSE       0.144000
     23 H4           2.8030    -1.9600    -0.0650 h4         1 NSE       0.040100
     24 H5           3.6930     2.2370     0.0460 ha         1 NSE       0.137000
     25 H6           6.1040     1.6260     0.0230 ha         1 NSE       0.130000
     26 H7          -3.4250    -3.3320    -0.0250 ha         1 NSE       0.130000
     27 H8          -5.3760    -1.8120    -0.0170 ha         1 NSE       0.132000
@<TRIPOS>BOND
     1     1    12 3   
     2     1    14 1   
     3     2    11 ar  
     4     2    16 ar  
     5     2    20 1   
     6     3     7 ar  
     7     3    14 ar  
     8     3    21 1   
     9     4     7 ar  
    10     4    18 ar  
    11     4    22 1   
    12     5     8 1   
    13     5    13 1   
    14     5    15 2   
    15     6     7 1   
    16     6    13 2   
    17     6    17 1   
    18     8     9 ar  
    19     8    10 ar  
    20     9    16 ar  
    21     9    23 1   
    22    10    11 ar  
    23    10    24 1   
    24    11    25 1   
    25    14    19 ar  
    26    15    17 1   
    27    18    19 ar  
    28    18    26 1   
    29    19    27 1   
@<TRIPOS>SUBSTRUCTURE
     1 NSE         1 TEMP              0 ****  ****    0 ROOT
