@<TRIPOS>MOLECULE
NSF
   37    38     1     0     0
SMALL
No Charge or Current Charge


@<TRIPOS>ATOM
      1 C10         35.9270    20.4320    26.9170 c5         1 NSF       0.143600
      2 C12         39.6580    23.5350    25.4730 c3         1 NSF       0.011000
      3 C11         38.2370    23.3520    26.0620 c          1 NSF       0.603100
      4 C16         40.4490    27.5090    23.9720 c          1 NSF       0.610200
      5 C14         39.5180    25.2660    23.6770 c          1 NSF       0.617000
      6 C17         40.8830    27.0970    25.3220 cc         1 NSF      -0.206400
      7 C18         40.6260    25.8240    25.7780 cd         1 NSF       0.071600
      8 C02         39.3960    20.2850    25.4630 c          1 NSF       0.711000
      9 C03         38.8840    21.0050    26.7400 c3         1 NSF      -0.069000
     10 C05         36.4190    21.9230    27.0200 c5         1 NSF       0.084700
     11 C06         36.4610    22.1800    28.5690 c5         1 NSF       0.107500
     12 C08         35.4200    21.1350    29.0590 c5         1 NSF       0.154600
     13 O09         35.7610    19.9760    28.2780 os         1 NSF      -0.422000
     14 N04         37.8390    22.0660    26.5290 n          1 NSF      -0.354800
     15 N07         36.1870    23.5870    28.9470 n8         1 NSF      -0.998200
     16 N13         39.9570    24.9070    24.9690 n          1 NSF      -0.275000
     17 N15         39.8020    26.5360    23.2790 ns         1 NSF      -0.470500
     18 O01         38.5760    19.8700    24.6570 o          1 NSF      -0.711000
     19 O22         37.4600    24.3030    26.1110 o          1 NSF      -0.645100
     20 I1          41.9060    28.5090    26.5460 i          1 NSF      -0.131800
     21 H102        34.9490    20.3910    26.4180 h1         1 NSF       0.067200
     22 H101        36.6000    19.7580    26.3750 h1         1 NSF       0.067200
     23 H122        39.7720    22.8160    24.6540 h1         1 NSF       0.102200
     24 H121        40.3840    23.2660    26.2480 h1         1 NSF       0.102200
     25 H181        40.9090    25.4530    26.7590 h4         1 NSF       0.208000
     26 H031        38.4980    20.2340    27.4170 h1         1 NSF       0.028200
     27 H032        39.7420    21.4510    27.2580 h1         1 NSF       0.028200
     28 H051        35.7140    22.5870    26.5010 h1         1 NSF       0.083700
     29 H061        37.4520    21.9270    28.9730 h1         1 NSF       0.036700
     30 H082        34.3880    21.4350    28.8330 h1         1 NSF       0.039700
     31 H081        35.5080    20.9080    30.1300 h1         1 NSF       0.039700
     32 H071        36.6930    23.8130    29.8110 hn         1 NSF       0.387000
     33 H2          36.6220    24.1970    28.2400 hn         1 NSF       0.387000
     34 H151        39.4900    26.7870    22.3550 hn         1 NSF       0.337500
     35 O02         40.6030    20.2300    25.2860 o          1 NSF      -0.711000
     36 O20         40.6360    28.6150    23.4900 o          1 NSF      -0.540000
     37 O21         38.9230    24.5000    22.9370 o          1 NSF      -0.493000
@<TRIPOS>BOND
     1     1    10 1   
     2     1    13 1   
     3     1    21 1   
     4     1    22 1   
     5     2     3 1   
     6     2    16 1   
     7     2    23 1   
     8     2    24 1   
     9     3    14 1   
    10     3    19 2   
    11     4     6 1   
    12     4    17 1   
    13     4    36 2   
    14     5    16 1   
    15     5    17 1   
    16     5    37 2   
    17     6     7 2   
    18     6    20 1   
    19     7    16 1   
    20     7    25 1   
    21     8     9 1   
    22     8    18 1   
    23     8    35 1   
    24     9    14 1   
    25     9    26 1   
    26     9    27 1   
    27    10    11 1   
    28    10    14 1   
    29    10    28 1   
    30    11    12 1   
    31    11    15 1   
    32    11    29 1   
    33    12    13 1   
    34    12    30 1   
    35    12    31 1   
    36    15    32 1   
    37    15    33 1   
    38    17    34 1   
@<TRIPOS>SUBSTRUCTURE
     1 NSF         1 TEMP              0 ****  ****    0 ROOT
