@<TRIPOS>MOLECULE
NSF
   37    38     1     0     0
SMALL
bcc


@<TRIPOS>ATOM
      1 C10         35.8000    21.6010    26.5850 c5         1 NSF       0.120400
      2 C12         39.8760    23.5970    25.6080 c3         1 NSF       0.011000
      3 C11         38.4230    23.5550    26.0820 c          1 NSF       0.670100
      4 C16         40.3500    27.2370    23.4590 c          1 NSF       0.752700
      5 C14         39.7120    24.8390    23.5290 c          1 NSF       0.826500
      6 C17         40.7010    27.1090    24.8580 cc         1 NSF      -0.206400
      7 C18         40.5560    25.9250    25.4820 cd         1 NSF       0.121600
      8 C02         38.8930    20.3710    25.9210 c          1 NSF       0.921600
      9 C03         38.9390    21.3940    27.0840 c3         1 NSF      -0.069000
     10 C05         36.7090    22.5160    27.3980 c5         1 NSF       0.084700
     11 C06         36.5440    21.9180    28.8070 c5         1 NSF       0.107500
     12 C08         36.1700    20.4490    28.5280 c5         1 NSF       0.131400
     13 O09         35.9930    20.3130    27.1310 os         1 NSF      -0.375600
     14 N04         38.0890    22.5590    26.9240 n          1 NSF      -0.421800
     15 N07         35.4290    22.5940    29.4550 n8         1 NSF      -0.887800
     16 N13         40.1150    24.8060    24.8490 n          1 NSF      -0.342000
     17 N15         39.8790    26.0540    22.9150 ns         1 NSF      -0.604500
     18 O01         38.4850    20.7810    24.8200 o          1 NSF      -0.816300
     19 O22         37.6550    24.4390    25.7320 o          1 NSF      -0.645100
     20 I1          41.4110    28.7950    25.8440 i          1 NSF      -0.131800
     21 H102        34.7590    21.9320    26.7000 h1         1 NSF       0.067200
     22 H101        36.0440    21.5770    25.5250 h1         1 NSF       0.067200
     23 H122        40.1070    22.7300    24.9940 h1         1 NSF       0.102200
     24 H121        40.5650    23.5890    26.4530 h1         1 NSF       0.102200
     25 H181        40.8020    25.7950    26.5280 h4         1 NSF       0.158000
     26 H031        38.6960    20.9030    28.0230 h1         1 NSF       0.028200
     27 H032        39.9780    21.7100    27.2120 h1         1 NSF       0.028200
     28 H051        36.3370    23.5380    27.3870 h1         1 NSF       0.083700
     29 H061        37.4750    21.9840    29.3840 h1         1 NSF       0.036700
     30 H082        35.2500    20.1890    29.0660 h1         1 NSF       0.039700
     31 H081        36.9500    19.7540    28.8480 h1         1 NSF       0.039700
     32 H071        35.2150    22.1310    30.3300 hn         1 NSF       0.331800
     33 H2          35.7040    23.5370    29.7040 hn         1 NSF       0.331800
     34 H151        39.6050    26.0860    21.9400 hn         1 NSF       0.337500
     35 O02         39.3300    19.2420    26.2070 o          1 NSF      -0.816300
     36 O20         40.4380    28.2440    22.7900 o          1 NSF      -0.615500
     37 O21         39.2670    23.8730    22.9530 o          1 NSF      -0.568500
@<TRIPOS>BOND
     1     1    10 1   
     2     1    13 1   
     3     1    21 1   
     4     1    22 1   
     5     2     3 1   
     6     2    16 1   
     7     2    23 1   
     8     2    24 1   
     9     3    14 1   
    10     3    19 2   
    11     4     6 1   
    12     4    17 1   
    13     4    36 2   
    14     5    16 1   
    15     5    17 1   
    16     5    37 2   
    17     6     7 2   
    18     6    20 1   
    19     7    16 1   
    20     7    25 1   
    21     8     9 1   
    22     8    18 1   
    23     8    35 1   
    24     9    14 1   
    25     9    26 1   
    26     9    27 1   
    27    10    11 1   
    28    10    14 1   
    29    10    28 1   
    30    11    12 1   
    31    11    15 1   
    32    11    29 1   
    33    12    13 1   
    34    12    30 1   
    35    12    31 1   
    36    15    32 1   
    37    15    33 1   
    38    17    34 1   
@<TRIPOS>SUBSTRUCTURE
     1 NSF         1 TEMP              0 ****  ****    0 ROOT
