@<TRIPOS>MOLECULE
NSG
   29    30     1     0     0
SMALL
No Charge or Current Charge


@<TRIPOS>ATOM
      1 C1          -0.3580    -0.5900     1.0890 c5         1 NSG       0.321300
      2 S1          -1.3480    -1.7250     0.0100 ss         1 NSG      -0.594000
      3 C2          -0.8310     0.8430     0.6960 c5         1 NSG       0.134500
      4 N2          -2.3250     0.6970     0.5790 n7         1 NSG      -0.826400
      5 C3          -0.1850     1.4120    -0.6200 c6         1 NSG       0.190300
      6 O3          -0.4790     2.8100    -0.7910 oh         1 NSG      -0.624000
      7 C4           1.3520     1.2220    -0.5780 c6         1 NSG       0.103300
      8 O4           1.9120     2.0510     0.4700 oh         1 NSG      -0.694000
      9 C5           1.6500    -0.2960    -0.3690 c6         1 NSG       0.124300
     10 O5           1.0660    -0.7860     0.8660 os         1 NSG      -0.391000
     11 C6           3.1780    -0.6310    -0.3700 c3         1 NSG       0.170600
     12 O6           3.4480    -2.0390    -0.2400 oh         1 NSG      -0.699000
     13 C7          -2.5960    -0.4000    -0.3760 c5         1 NSG       0.344500
     14 C8          -4.0210    -0.9500    -0.2090 c3         1 NSG      -0.091100
     15 H1          -0.6050    -0.7970     2.1390 h2         1 NSG       0.102700
     16 H2          -0.5700     1.5360     1.5100 h1         1 NSG       0.110700
     17 HN2         -2.7100     0.4210     1.4900 hn         1 NSG       0.429000
     18 H3          -0.5560     0.8530    -1.4890 h1         1 NSG       0.043700
     19 HO3          0.2060     3.2670    -0.2520 ho         1 NSG       0.441000
     20 H4           1.7630     1.5250    -1.5530 h1         1 NSG       0.034700
     21 HO4          2.8870     2.0880     0.3370 ho         1 NSG       0.502000
     22 H5           1.2000    -0.8520    -1.2040 h1         1 NSG       0.075700
     23 H6           3.6090    -0.2550    -1.3080 h1         1 NSG       0.023700
     24 H6A          3.6560    -0.0830     0.4530 h1         1 NSG       0.023700
     25 HO6          4.4270    -2.1400    -0.1830 ho         1 NSG       0.504000
     26 H7          -2.4530    -0.0670    -1.4140 h2         1 NSG       0.084700
     27 H8          -4.1910    -1.3220     0.8080 hc         1 NSG       0.051367
     28 H8A         -4.7660    -0.1730    -0.4160 hc         1 NSG       0.051367
     29 H8B         -4.2010    -1.7770    -0.9040 hc         1 NSG       0.051367
@<TRIPOS>BOND
     1     1     2 1   
     2     1     3 1   
     3     1    10 1   
     4     1    15 1   
     5     2    13 1   
     6     3     4 1   
     7     3     5 1   
     8     3    16 1   
     9     4    13 1   
    10     4    17 1   
    11     5     6 1   
    12     5     7 1   
    13     5    18 1   
    14     6    19 1   
    15     7     8 1   
    16     7     9 1   
    17     7    20 1   
    18     8    21 1   
    19     9    10 1   
    20     9    11 1   
    21     9    22 1   
    22    11    12 1   
    23    11    23 1   
    24    11    24 1   
    25    12    25 1   
    26    13    14 1   
    27    13    26 1   
    28    14    27 1   
    29    14    28 1   
    30    14    29 1   
@<TRIPOS>SUBSTRUCTURE
     1 NSG         1 TEMP              0 ****  ****    0 ROOT
