@<TRIPOS>MOLECULE
NSG
   29    30     1     0     0
SMALL
abcg2


@<TRIPOS>ATOM
      1 C1          -0.2810    -0.6330     1.0100 c5         1 NSG       0.321300
      2 S1          -1.2920    -1.7250    -0.0850 ss         1 NSG      -0.594000
      3 C2          -0.8170     0.7910     0.7270 c5         1 NSG       0.134500
      4 N2          -2.2450     0.6930     0.5240 n7         1 NSG      -0.826400
      5 C3          -0.1290     1.4110    -0.4850 c6         1 NSG       0.190300
      6 O3          -0.5120     2.7590    -0.5470 oh         1 NSG      -0.624000
      7 C4           1.3810     1.2190    -0.4080 c6         1 NSG       0.103300
      8 O4           1.8690     1.9290     0.7030 oh         1 NSG      -0.694000
      9 C5           1.6580    -0.2810    -0.3160 c6         1 NSG       0.124300
     10 O5           1.0850    -0.8090     0.8640 os         1 NSG      -0.391000
     11 C6           3.1370    -0.5960    -0.2970 c3         1 NSG       0.170600
     12 O6           3.3120    -1.9900    -0.3770 oh         1 NSG      -0.699000
     13 C7          -2.5450    -0.3760    -0.3930 c5         1 NSG       0.344500
     14 C8          -3.9570    -0.8920    -0.2310 c3         1 NSG      -0.091100
     15 H1          -0.5000    -0.9040     2.0440 h2         1 NSG       0.102700
     16 H2          -0.6260     1.4210     1.6000 h1         1 NSG       0.110700
     17 HN2         -2.6970     0.5130     1.4130 hn         1 NSG       0.429000
     18 H3          -0.4510     0.8730    -1.3890 h1         1 NSG       0.043700
     19 HO3         -0.1900     3.1280    -1.3760 ho         1 NSG       0.441000
     20 H4           1.8250     1.5880    -1.3450 h1         1 NSG       0.034700
     21 HO4          2.8230     2.0180     0.6250 ho         1 NSG       0.502000
     22 H5           1.2160    -0.7620    -1.2020 h1         1 NSG       0.075700
     23 H6           3.5960    -0.0790    -1.1500 h1         1 NSG       0.023700
     24 H6A          3.5940    -0.1860     0.6140 h1         1 NSG       0.023700
     25 HO6          4.2560    -2.1720    -0.3450 ho         1 NSG       0.504000
     26 H7          -2.3970    -0.0390    -1.4200 h2         1 NSG       0.084700
     27 H8          -4.1240    -1.2700     0.7780 hc         1 NSG       0.051367
     28 H8A         -4.6690    -0.0880    -0.4250 hc         1 NSG       0.051367
     29 H8B         -4.1610    -1.6960    -0.9360 hc         1 NSG       0.051367
@<TRIPOS>BOND
     1     1     2 1   
     2     1     3 1   
     3     1    10 1   
     4     1    15 1   
     5     2    13 1   
     6     3     4 1   
     7     3     5 1   
     8     3    16 1   
     9     4    13 1   
    10     4    17 1   
    11     5     6 1   
    12     5     7 1   
    13     5    18 1   
    14     6    19 1   
    15     7     8 1   
    16     7     9 1   
    17     7    20 1   
    18     8    21 1   
    19     9    10 1   
    20     9    11 1   
    21     9    22 1   
    22    11    12 1   
    23    11    23 1   
    24    11    24 1   
    25    12    25 1   
    26    13    14 1   
    27    13    26 1   
    28    14    27 1   
    29    14    28 1   
    30    14    29 1   
@<TRIPOS>SUBSTRUCTURE
     1 NSG         1 TEMP              0 ****  ****    0 ROOT
