@<TRIPOS>MOLECULE
NSH
  125   134     1     0     0
SMALL
abcg2


@<TRIPOS>ATOM
      1 S1           5.4190     7.0720    -1.1660 ss         1 NSH       0.078600
      2 S2          -1.6250     4.6290     2.2580 ss         1 NSH       0.044600
      3 S3           0.7910     1.1110     2.8910 ss         1 NSH       0.027600
      4 S4          -6.2250     0.1250     0.2340 ss         1 NSH      -0.058400
      5 S5          -1.0000    -5.6840     1.4100 ss         1 NSH       0.113600
      6 S6           0.9090    -2.0790    -1.5420 ss         1 NSH      -0.259600
      7 O1           2.8370     7.8770    -0.8830 oh         1 NSH      -0.530100
      8 O2          -3.8400     7.7150    -0.6600 o          1 NSH      -0.558100
      9 O3          -7.4570     4.8120    -1.4860 oh         1 NSH      -0.642000
     10 O4          -4.5640     3.9710    -1.8810 o          1 NSH      -0.531100
     11 O5          -3.8100    -3.6120    -1.6120 o          1 NSH      -0.549100
     12 O6          -2.7270    -7.7670     1.1200 oh         1 NSH      -0.653000
     13 O7          -2.9320    -8.7720    -2.2580 o          1 NSH      -0.476000
     14 O8          -1.2020    -7.9880    -1.0750 os         1 NSH      -0.426100
     15 O9          -1.2010    -0.8810     0.7580 o          1 NSH      -0.532100
     16 O10          3.3010    -2.5820    -0.6110 o          1 NSH      -0.559100
     17 O11          8.8750     4.1410    -0.7870 o          1 NSH      -0.584100
     18 O12          8.6290     1.3320    -1.9570 o          1 NSH      -0.581100
     19 N1           2.7350     4.5790     0.4570 nb         1 NSH      -0.595000
     20 N2          -1.7570     6.0510     0.1570 nc         1 NSH      -0.596000
     21 N3          -5.3310     6.0960    -0.1990 ns         1 NSH      -0.480900
     22 N4          -4.5980     2.5960    -0.0730 ns         1 NSH      -0.442100
     23 N5          -4.1410    -0.9430    -0.7770 nc         1 NSH      -0.587000
     24 N6          -4.6680    -4.1970     0.4170 ns         1 NSH      -0.472900
     25 N7          -2.1920    -3.4660     1.0510 nc         1 NSH      -0.610000
     26 N8           0.8640    -1.4980     1.4020 ns         1 NSH      -0.516900
     27 N9           1.4000     2.0100     0.5870 nc         1 NSH      -0.615000
     28 N10          3.2220    -5.2680    -0.8110 na         1 NSH      -0.191700
     29 N11          5.3910     4.7070    -0.2180 nc         1 NSH      -0.608000
     30 N12          7.2960     2.7830     0.1080 ns         1 NSH      -0.401100
     31 N13         10.2750     0.9370    -0.4550 nt         1 NSH      -0.600000
     32 C1           3.1830     5.6930    -0.0950 ca         1 NSH       0.298000
     33 C2           2.3260     6.7770    -0.3280 ca         1 NSH       0.105100
     34 C3           0.9970     6.6440     0.0280 ca         1 NSH      -0.137000
     35 C4           0.5370     5.4700     0.6170 ca         1 NSH      -0.111500
     36 C5           1.4710     4.4400     0.8210 ca         1 NSH       0.312000
     37 C6          -0.9020     5.4140     0.8980 cd         1 NSH       0.471900
     38 C7          -3.1490     5.1990     1.7670 cd         1 NSH      -0.273000
     39 C8          -3.0300     5.9230     0.6170 cc         1 NSH       0.245500
     40 C9          -4.1000     6.6460    -0.1360 c          1 NSH       0.539600
     41 C10         -5.6960     4.7350     0.1040 c3         1 NSH       0.043700
     42 C11         -7.1990     4.5200    -0.1340 c3         1 NSH       0.166300
     43 C12         -8.0420     5.3580     0.8140 c3         1 NSH      -0.135100
     44 C13         -4.8870     3.7420    -0.7360 c          1 NSH       0.585100
     45 C14         -3.9360     1.4800    -0.6270 cf         1 NSH      -0.096200
     46 C15         -2.7190     1.5200    -1.1770 c2         1 NSH      -0.107200
     47 C16         -1.8140     2.6890    -1.2750 c3         1 NSH      -0.069900
     48 C17         -4.6430     0.2100    -0.4800 cd         1 NSH       0.511200
     49 C18         -6.1420    -1.5830     0.1630 cd         1 NSH      -0.256000
     50 C19         -4.9600    -1.9570    -0.4020 cc         1 NSH       0.250500
     51 C20         -4.4280    -3.3340    -0.6050 c          1 NSH       0.541600
     52 C21         -3.7750    -5.3090     0.6810 c3         1 NSH       0.099400
     53 C22         -3.7160    -6.2890    -0.5030 c3         1 NSH      -0.081400
     54 C23         -3.3540    -7.7440    -0.1280 c3         1 NSH       0.122300
     55 C24         -2.4820    -8.2560    -1.2660 c          1 NSH       0.548100
     56 C25         -2.4110    -4.7370     1.0460 cd         1 NSH       0.369700
     57 C26         -0.0960    -4.2460     1.5420 cd         1 NSH      -0.280000
     58 C27         -0.8910    -3.1620     1.3140 cc         1 NSH       0.233500
     59 C28         -0.4540    -1.7510     1.1510 c          1 NSH       0.531600
     60 C29          1.5490    -0.4530     0.6860 c3         1 NSH       0.087400
     61 C30          1.2350     0.9090     1.2360 cd         1 NSH       0.431700
     62 C31          1.1820     3.1030     1.3860 cc         1 NSH       0.241000
     63 C32          0.8550     2.8100     2.6720 cd         1 NSH      -0.269000
     64 C33          1.3660    -0.4740    -0.8520 c3         1 NSH       0.035600
     65 C34          2.2890    -3.0700    -1.0750 c          1 NSH       0.603900
     66 C35          2.1490    -4.5170    -1.2160 cc         1 NSH      -0.179300
     67 C36          2.9310    -6.5770    -0.9400 ca         1 NSH      -0.034200
     68 C37          1.6120    -6.6900    -1.4490 ca         1 NSH      -0.098800
     69 C38          1.1250    -5.3540    -1.6300 cd         1 NSH      -0.030400
     70 C39         -0.2020    -4.9240    -2.1650 c3         1 NSH      -0.041900
     71 C40          3.7430    -7.6760    -0.6450 ca         1 NSH      -0.125000
     72 C41          3.2140    -8.9220    -0.8660 ca         1 NSH      -0.081000
     73 C42          1.9050    -9.0700    -1.3600 ca         1 NSH      -0.130000
     74 C43          1.0930    -7.9950    -1.6530 ca         1 NSH      -0.030300
     75 C44         -0.2900    -8.2880    -2.1440 c3         1 NSH       0.206900
     76 C45          4.6070     5.7180    -0.4380 cd         1 NSH       0.370400
     77 C46          6.8740     6.1950    -1.1530 cd         1 NSH      -0.225000
     78 C47          6.6630     4.9600    -0.6150 cc         1 NSH       0.213500
     79 C48          7.7220     3.9380    -0.4510 c          1 NSH       0.546600
     80 C49          8.1410     1.6960     0.3340 ce         1 NSH      -0.011600
     81 C50          8.0370     0.9320     1.4180 c2         1 NSH      -0.359000
     82 C51          9.0460     1.3250    -0.8110 c          1 NSH       0.617300
     83 HO1          2.1670     8.5610    -1.0120 ho         1 NSH       0.485000
     84 HO3         -8.4100     4.8140    -1.6220 ho         1 NSH       0.451000
     85 HO6         -2.5940    -8.6760     1.4070 ho         1 NSH       0.462000
     86 HN3         -5.9720     6.6020    -0.7960 hn         1 NSH       0.337500
     87 HN4         -4.8400     2.5470     0.9060 hn         1 NSH       0.310500
     88 HN6         -5.0350    -3.7730     1.2560 hn         1 NSH       0.306500
     89 HN8          1.4480    -2.2470     1.7360 hn         1 NSH       0.315500
     90 HN10         4.0850    -4.8870    -0.4600 hn         1 NSH       0.370000
     91 HN12         6.3500     2.7500     0.4620 hn         1 NSH       0.356500
     92 HN13        10.9290     0.6210    -1.1530 hn         1 NSH       0.316000
     93 HN1A        10.6100     1.0310     0.4880 hn         1 NSH       0.316000
     94 H3           0.3070     7.4610    -0.1470 ha         1 NSH       0.151000
     95 H7          -4.0220     4.9960     2.3650 h4         1 NSH       0.160000
     96 H10         -5.5560     4.5230     1.1650 h1         1 NSH       0.054700
     97 H11         -7.3950     3.4610     0.0860 h1         1 NSH       0.040700
     98 H12         -9.1010     5.1480     0.6590 hc         1 NSH       0.048367
     99 H12A        -7.8120     5.1170     1.8520 hc         1 NSH       0.048367
    100 H12B        -7.8850     6.4270     0.6680 hc         1 NSH       0.048367
    101 H15         -2.3450     0.5810    -1.5650 ha         1 NSH       0.212000
    102 H16         -2.1550     3.5390    -0.6930 hc         1 NSH       0.054700
    103 H16A        -0.8200     2.4080    -0.9230 hc         1 NSH       0.054700
    104 H16B        -1.7030     3.0130    -2.3110 hc         1 NSH       0.054700
    105 H18         -6.9490    -2.2020     0.5250 h4         1 NSH       0.161000
    106 H21         -4.1880    -5.8230     1.5500 h1         1 NSH       0.077700
    107 H22         -4.6950    -6.3050    -0.9810 hc         1 NSH       0.086700
    108 H22A        -3.0230    -5.8920    -1.2420 hc         1 NSH       0.086700
    109 H23         -4.2650    -8.3510    -0.1210 h1         1 NSH       0.066700
    110 H26          0.9610    -4.2910     1.7570 h4         1 NSH       0.156000
    111 H29          2.6080    -0.6170     0.8870 h1         1 NSH       0.087700
    112 H32          0.6930     3.4880     3.4950 h4         1 NSH       0.162000
    113 H33          2.2710    -0.1040    -1.3310 h1         1 NSH       0.106700
    114 H33A         0.5460     0.1720    -1.1610 h1         1 NSH       0.106700
    115 H39         -0.7800    -5.7620    -2.5380 hc         1 NSH       0.058033
    116 H39A        -0.8090    -4.4210    -1.4100 hc         1 NSH       0.058033
    117 H39B        -0.0910    -4.2320    -3.0010 hc         1 NSH       0.058033
    118 H40          4.7460    -7.5420    -0.2610 ha         1 NSH       0.120000
    119 H41          3.8030    -9.8050    -0.6570 ha         1 NSH       0.117000
    120 H42          1.5220   -10.0720    -1.5120 ha         1 NSH       0.113000
    121 H44         -0.3700    -9.3420    -2.4120 h1         1 NSH       0.060700
    122 H44A        -0.5560    -7.7080    -3.0300 h1         1 NSH       0.060700
    123 H46          7.7940     6.6130    -1.5280 h4         1 NSH       0.180000
    124 H50          8.6340     0.0380     1.5300 ha         1 NSH       0.175500
    125 H50A         7.3290     1.1570     2.2040 ha         1 NSH       0.175500
@<TRIPOS>BOND
     1     1    76 1   
     2     1    77 1   
     3     2    37 1   
     4     2    38 1   
     5     3    61 1   
     6     3    63 1   
     7     4    48 1   
     8     4    49 1   
     9     5    56 1   
    10     5    57 1   
    11     6    64 1   
    12     6    65 1   
    13     7    33 1   
    14     7    83 1   
    15     8    40 2   
    16     9    42 1   
    17     9    84 1   
    18    10    44 2   
    19    11    51 2   
    20    12    54 1   
    21    12    85 1   
    22    13    55 2   
    23    14    55 1   
    24    14    75 1   
    25    15    59 2   
    26    16    65 2   
    27    17    79 2   
    28    18    82 2   
    29    19    32 ar  
    30    19    36 ar  
    31    20    37 2   
    32    20    39 1   
    33    21    40 1   
    34    21    41 1   
    35    21    86 1   
    36    22    44 1   
    37    22    45 1   
    38    22    87 1   
    39    23    48 2   
    40    23    50 1   
    41    24    51 1   
    42    24    52 1   
    43    24    88 1   
    44    25    56 2   
    45    25    58 1   
    46    26    59 1   
    47    26    60 1   
    48    26    89 1   
    49    27    61 2   
    50    27    62 1   
    51    28    66 1   
    52    28    67 1   
    53    28    90 1   
    54    29    76 2   
    55    29    78 1   
    56    30    79 1   
    57    30    80 1   
    58    30    91 1   
    59    31    82 1   
    60    31    92 1   
    61    31    93 1   
    62    32    33 ar  
    63    32    76 1   
    64    33    34 ar  
    65    34    35 ar  
    66    34    94 1   
    67    35    36 ar  
    68    35    37 1   
    69    36    62 1   
    70    38    39 2   
    71    38    95 1   
    72    39    40 1   
    73    41    42 1   
    74    41    44 1   
    75    41    96 1   
    76    42    43 1   
    77    42    97 1   
    78    43    98 1   
    79    43    99 1   
    80    43   100 1   
    81    45    46 2   
    82    45    48 1   
    83    46    47 1   
    84    46   101 1   
    85    47   102 1   
    86    47   103 1   
    87    47   104 1   
    88    49    50 2   
    89    49   105 1   
    90    50    51 1   
    91    52    53 1   
    92    52    56 1   
    93    52   106 1   
    94    53    54 1   
    95    53   107 1   
    96    53   108 1   
    97    54    55 1   
    98    54   109 1   
    99    57    58 2   
   100    57   110 1   
   101    58    59 1   
   102    60    61 1   
   103    60    64 1   
   104    60   111 1   
   105    62    63 2   
   106    63   112 1   
   107    64   113 1   
   108    64   114 1   
   109    65    66 1   
   110    66    69 2   
   111    67    68 ar  
   112    67    71 ar  
   113    68    69 1   
   114    68    74 ar  
   115    69    70 1   
   116    70   115 1   
   117    70   116 1   
   118    70   117 1   
   119    71    72 ar  
   120    71   118 1   
   121    72    73 ar  
   122    72   119 1   
   123    73    74 ar  
   124    73   120 1   
   125    74    75 1   
   126    75   121 1   
   127    75   122 1   
   128    77    78 2   
   129    77   123 1   
   130    78    79 1   
   131    80    81 2   
   132    80    82 1   
   133    81   124 1   
   134    81   125 1   
@<TRIPOS>SUBSTRUCTURE
     1 NSH         1 TEMP              0 ****  ****    0 ROOT
