@<TRIPOS>MOLECULE
NSH
  125   134     1     0     0
SMALL
No Charge or Current Charge


@<TRIPOS>ATOM
      1 S1           6.1330     6.1760    -2.6120 ss         1 NSH       0.078600
      2 S2          -1.1890     3.5180    -1.4170 ss         1 NSH       0.044600
      3 S3           0.5300     0.8750     1.3240 ss         1 NSH       0.027600
      4 S4          -6.2150    -0.0230     1.4470 ss         1 NSH      -0.058400
      5 S5          -1.4450    -5.7730     1.1480 ss         1 NSH       0.113600
      6 S6           1.8930    -2.8670    -2.6620 ss         1 NSH      -0.259600
      7 O1           3.5470     7.7700    -1.6250 oh         1 NSH      -0.530100
      8 O2          -3.3500     7.7550     0.1260 o          1 NSH      -0.558100
      9 O3          -6.9920     5.9820     1.9100 oh         1 NSH      -0.642000
     10 O4          -6.8430     4.4160    -1.0850 o          1 NSH      -0.531100
     11 O5          -5.4090    -3.7500    -1.7850 o          1 NSH      -0.549100
     12 O6          -3.6920    -8.3130     0.5330 oh         1 NSH      -0.653000
     13 O7          -2.9960    -8.4950    -2.9820 o          1 NSH      -0.476000
     14 O8          -1.6240    -8.2230    -1.1690 os         1 NSH      -0.426100
     15 O9          -1.0080    -1.3090    -1.1250 o          1 NSH      -0.532100
     16 O10          3.8800    -3.2540    -0.9260 o          1 NSH      -0.559100
     17 O11          9.8620     5.3070     0.0010 o          1 NSH      -0.584100
     18 O12         10.7770     3.0030     1.2920 o          1 NSH      -0.581100
     19 N1           3.3890     4.2070    -0.7020 nb         1 NSH      -0.595000
     20 N2          -1.1040     5.9150    -0.3590 nc         1 NSH      -0.596000
     21 N3          -4.8410     6.0910     0.1150 ns         1 NSH      -0.480900
     22 N4          -5.8270     2.5700    -0.1460 ns         1 NSH      -0.442100
     23 N5          -6.0860    -1.0080    -0.9770 nc         1 NSH      -0.587000
     24 N6          -5.1110    -4.3300     0.4130 ns         1 NSH      -0.472900
     25 N7          -2.4040    -3.7860    -0.2740 nc         1 NSH      -0.610000
     26 N8           0.8480    -1.9690     0.0080 ns         1 NSH      -0.516900
     27 N9           1.9580     1.5220    -0.7930 nc         1 NSH      -0.615000
     28 N10          3.2890    -6.0560    -0.3430 na         1 NSH      -0.191700
     29 N11          6.1960     5.1820    -0.1720 nc         1 NSH      -0.608000
     30 N12          8.3210     4.5820     1.5530 ns         1 NSH      -0.401100
     31 N13         11.1610     3.1110     3.4660 nt         1 NSH      -0.600000
     32 C1           3.8900     5.4220    -1.0590 ca         1 NSH       0.298000
     33 C2           3.0440     6.5320    -1.3100 ca         1 NSH       0.105100
     34 C3           1.6550     6.3560    -1.2150 ca         1 NSH      -0.137000
     35 C4           1.1310     5.0830    -0.8860 ca         1 NSH      -0.111500
     36 C5           2.0450     4.0300    -0.6020 ca         1 NSH       0.312000
     37 C6          -0.3340     4.9160    -0.7720 cd         1 NSH       0.471900
     38 C7          -2.6820     4.3440    -1.0120 cd         1 NSH      -0.273000
     39 C8          -2.4440     5.5860    -0.4500 cc         1 NSH       0.245500
     40 C9          -3.5470     6.5600    -0.0550 c          1 NSH       0.539600
     41 C10         -5.2190     4.7820     0.7080 c3         1 NSH       0.043700
     42 C11         -5.9780     4.9790     2.0520 c3         1 NSH       0.166300
     43 C12         -5.0390     5.3970     3.2020 c3         1 NSH      -0.135100
     44 C13         -6.0640     3.9310    -0.2770 c          1 NSH       0.585100
     45 C14         -6.2100     1.4480    -0.9930 cf         1 NSH      -0.096200
     46 C15         -6.4280     1.4960    -2.3420 c2         1 NSH      -0.107200
     47 C16         -6.2900     2.6540    -3.3130 c3         1 NSH      -0.069900
     48 C17         -6.2380     0.1280    -0.3100 cd         1 NSH       0.511200
     49 C18         -5.8810    -1.7290     1.2280 cd         1 NSH      -0.256000
     50 C19         -5.8470    -2.0610    -0.1130 cc         1 NSH       0.250500
     51 C20         -5.4650    -3.4410    -0.5990 c          1 NSH       0.541600
     52 C21         -4.1680    -5.4700     0.2730 c3         1 NSH       0.099400
     53 C22         -4.5700    -6.4590    -0.8670 c3         1 NSH      -0.081400
     54 C23         -4.0130    -7.9150    -0.8230 c3         1 NSH       0.122300
     55 C24         -2.8320    -8.1610    -1.8160 c          1 NSH       0.548100
     56 C25         -2.7190    -4.9760     0.2320 cd         1 NSH       0.369700
     57 C26         -0.4320    -4.3800     0.8020 cd         1 NSH      -0.280000
     58 C27         -1.1050    -3.4390     0.0430 cc         1 NSH       0.233500
     59 C28         -0.4600    -2.1470    -0.4180 c          1 NSH       0.531600
     60 C29          1.7960    -0.9530    -0.5150 c3         1 NSH       0.087400
     61 C30          1.4540     0.4850    -0.1320 cd         1 NSH       0.431700
     62 C31          1.6030     2.6890    -0.1560 cc         1 NSH       0.241000
     63 C32          0.8610     2.5680     0.9950 cd         1 NSH      -0.269000
     64 C33          2.0870    -1.1210    -2.0430 c3         1 NSH       0.035600
     65 C34          2.9350    -3.7890    -1.4920 c          1 NSH       0.603900
     66 C35          2.5570    -5.2100    -1.1990 cc         1 NSH      -0.179300
     67 C36          2.6890    -7.2860    -0.2330 ca         1 NSH      -0.034200
     68 C37          1.5520    -7.3200    -0.9960 ca         1 NSH      -0.098800
     69 C38          1.4440    -5.9840    -1.6000 cd         1 NSH      -0.030400
     70 C39          0.2650    -5.5270    -2.4400 c3         1 NSH      -0.041900
     71 C40          3.1280    -8.3760     0.5260 ca         1 NSH      -0.125000
     72 C41          2.3630    -9.5540     0.4930 ca         1 NSH      -0.081000
     73 C42          1.1960    -9.6150    -0.2990 ca         1 NSH      -0.130000
     74 C43          0.7690    -8.5040    -1.0660 ca         1 NSH      -0.030300
     75 C44         -0.4780    -8.6660    -1.9250 c3         1 NSH       0.206900
     76 C45          5.3670     5.5540    -1.1510 cd         1 NSH       0.370400
     77 C46          7.6760     5.9190    -1.8180 cd         1 NSH      -0.225000
     78 C47          7.5090     5.3940    -0.5560 cc         1 NSH       0.213500
     79 C48          8.6970     5.0880     0.3170 c          1 NSH       0.546600
     80 C49          9.0470     4.0740     2.6670 ce         1 NSH      -0.011600
     81 C50          8.5280     4.1920     3.9140 c2         1 NSH      -0.359000
     82 C51         10.3890     3.3800     2.3870 c          1 NSH       0.617300
     83 HO1          2.8050     8.4050    -1.7340 ho         1 NSH       0.485000
     84 HO3         -7.4640     6.0430     2.7690 ho         1 NSH       0.451000
     85 HO6         -2.7750    -8.6730     0.5060 ho         1 NSH       0.462000
     86 HN3         -5.5280     6.8240     0.2520 hn         1 NSH       0.337500
     87 HN4         -5.3060     2.3110     0.6860 hn         1 NSH       0.310500
     88 HN6         -5.2640    -3.9930     1.3560 hn         1 NSH       0.306500
     89 HN8          1.2150    -2.6730     0.6370 hn         1 NSH       0.315500
     90 HN10         4.1480    -5.7920     0.1310 hn         1 NSH       0.370000
     91 HN12         7.3190     4.6300     1.7100 hn         1 NSH       0.356500
     92 HN13        12.0430     2.6390     3.3350 hn         1 NSH       0.316000
     93 HN1A        10.8680     3.4090     4.3830 hn         1 NSH       0.316000
     94 H3           0.9850     7.1920    -1.4060 ha         1 NSH       0.151000
     95 H7          -3.6230     3.8860    -1.2750 h4         1 NSH       0.160000
     96 H10         -4.3090     4.2140     0.9370 h1         1 NSH       0.054700
     97 H11         -6.4360     4.0200     2.3330 h1         1 NSH       0.040700
     98 H12         -5.5940     5.4880     4.1430 hc         1 NSH       0.048367
     99 H12A        -4.2510     4.6480     3.3470 hc         1 NSH       0.048367
    100 H12B        -4.5600     6.3610     2.9900 hc         1 NSH       0.048367
    101 H15         -6.6900     0.5720    -2.8630 ha         1 NSH       0.212000
    102 H16         -5.4550     3.3120    -3.0450 hc         1 NSH       0.054700
    103 H16A        -6.0910     2.2850    -4.3270 hc         1 NSH       0.054700
    104 H16B        -7.2090     3.2480    -3.3620 hc         1 NSH       0.054700
    105 H18         -5.7080    -2.3550     2.0940 h4         1 NSH       0.161000
    106 H21         -4.2700    -6.0180     1.2180 h1         1 NSH       0.077700
    107 H22         -5.6630    -6.5440    -0.8460 hc         1 NSH       0.086700
    108 H22A        -4.3250    -6.0230    -1.8430 hc         1 NSH       0.086700
    109 H23         -4.8120    -8.5690    -1.1990 h1         1 NSH       0.066700
    110 H26          0.5850    -4.3630     1.1690 h4         1 NSH       0.156000
    111 H29          2.7460    -1.1530    -0.0040 h1         1 NSH       0.087700
    112 H32          0.5120     3.3470     1.6620 h4         1 NSH       0.162000
    113 H33          3.1020    -0.7650    -2.2620 h1         1 NSH       0.106700
    114 H33A         1.3860    -0.4970    -2.6130 h1         1 NSH       0.106700
    115 H39         -0.6370    -6.1060    -2.2500 hc         1 NSH       0.058033
    116 H39A        -0.0510    -4.5120    -2.2000 hc         1 NSH       0.058033
    117 H39B         0.4920    -5.5790    -3.5110 hc         1 NSH       0.058033
    118 H40          4.0340    -8.3160     1.1250 ha         1 NSH       0.120000
    119 H41          2.6740   -10.4210     1.0720 ha         1 NSH       0.117000
    120 H42          0.6220   -10.5390    -0.3200 ha         1 NSH       0.113000
    121 H44         -0.5940    -9.7230    -2.1990 h1         1 NSH       0.060700
    122 H44A        -0.3620    -8.1130    -2.8650 h1         1 NSH       0.060700
    123 H46          8.6040     6.1650    -2.3200 h4         1 NSH       0.180000
    124 H50          9.0210     3.8050     4.8050 ha         1 NSH       0.175500
    125 H50A         7.5700     4.6840     4.0860 ha         1 NSH       0.175500
@<TRIPOS>BOND
     1     1    76 1   
     2     1    77 1   
     3     2    37 1   
     4     2    38 1   
     5     3    61 1   
     6     3    63 1   
     7     4    48 1   
     8     4    49 1   
     9     5    56 1   
    10     5    57 1   
    11     6    64 1   
    12     6    65 1   
    13     7    33 1   
    14     7    83 1   
    15     8    40 2   
    16     9    42 1   
    17     9    84 1   
    18    10    44 2   
    19    11    51 2   
    20    12    54 1   
    21    12    85 1   
    22    13    55 2   
    23    14    55 1   
    24    14    75 1   
    25    15    59 2   
    26    16    65 2   
    27    17    79 2   
    28    18    82 2   
    29    19    32 ar  
    30    19    36 ar  
    31    20    37 2   
    32    20    39 1   
    33    21    40 1   
    34    21    41 1   
    35    21    86 1   
    36    22    44 1   
    37    22    45 1   
    38    22    87 1   
    39    23    48 2   
    40    23    50 1   
    41    24    51 1   
    42    24    52 1   
    43    24    88 1   
    44    25    56 2   
    45    25    58 1   
    46    26    59 1   
    47    26    60 1   
    48    26    89 1   
    49    27    61 2   
    50    27    62 1   
    51    28    66 1   
    52    28    67 1   
    53    28    90 1   
    54    29    76 2   
    55    29    78 1   
    56    30    79 1   
    57    30    80 1   
    58    30    91 1   
    59    31    82 1   
    60    31    92 1   
    61    31    93 1   
    62    32    33 ar  
    63    32    76 1   
    64    33    34 ar  
    65    34    35 ar  
    66    34    94 1   
    67    35    36 ar  
    68    35    37 1   
    69    36    62 1   
    70    38    39 2   
    71    38    95 1   
    72    39    40 1   
    73    41    42 1   
    74    41    44 1   
    75    41    96 1   
    76    42    43 1   
    77    42    97 1   
    78    43    98 1   
    79    43    99 1   
    80    43   100 1   
    81    45    46 2   
    82    45    48 1   
    83    46    47 1   
    84    46   101 1   
    85    47   102 1   
    86    47   103 1   
    87    47   104 1   
    88    49    50 2   
    89    49   105 1   
    90    50    51 1   
    91    52    53 1   
    92    52    56 1   
    93    52   106 1   
    94    53    54 1   
    95    53   107 1   
    96    53   108 1   
    97    54    55 1   
    98    54   109 1   
    99    57    58 2   
   100    57   110 1   
   101    58    59 1   
   102    60    61 1   
   103    60    64 1   
   104    60   111 1   
   105    62    63 2   
   106    63   112 1   
   107    64   113 1   
   108    64   114 1   
   109    65    66 1   
   110    66    69 2   
   111    67    68 ar  
   112    67    71 ar  
   113    68    69 1   
   114    68    74 ar  
   115    69    70 1   
   116    70   115 1   
   117    70   116 1   
   118    70   117 1   
   119    71    72 ar  
   120    71   118 1   
   121    72    73 ar  
   122    72   119 1   
   123    73    74 ar  
   124    73   120 1   
   125    74    75 1   
   126    75   121 1   
   127    75   122 1   
   128    77    78 2   
   129    77   123 1   
   130    78    79 1   
   131    80    81 2   
   132    80    82 1   
   133    81   124 1   
   134    81   125 1   
@<TRIPOS>SUBSTRUCTURE
     1 NSH         1 TEMP              0 ****  ****    0 ROOT
