@<TRIPOS>MOLECULE
NSI
   63    67     1     0     0
SMALL
No Charge or Current Charge


@<TRIPOS>ATOM
      1 O52          1.5890    -2.5430    -2.4150 o          1 NSI      -0.531500
      2 S48          1.2320    -2.8880    -1.0340 sy         1 NSI       1.177300
      3 O50          0.2180    -3.9030    -0.7360 o          1 NSI      -0.531500
      4 C51          2.7360    -3.2800    -0.1210 ca         1 NSI      -0.298500
      5 C55          2.6530    -3.9880     1.0970 ca         1 NSI      -0.003000
      6 C56          3.8230    -4.2860     1.8160 ca         1 NSI      -0.131000
      7 C53          5.0770    -3.8810     1.3270 ca         1 NSI      -0.048000
      8 C57          5.1600    -3.1730     0.1160 ca         1 NSI      -0.131000
      9 C54          3.9950    -2.8710    -0.6090 ca         1 NSI      -0.003000
     10 N17          0.6590    -1.4890    -0.3270 ns         1 NSI      -0.583300
     11 C15          1.2520    -0.2680    -0.3050 c          1 NSI       0.671300
     12 O16          2.3360    -0.0720    -0.8290 o          1 NSI      -0.530100
     13 C13          0.4610     0.7740     0.4190 cc         1 NSI      -0.144300
     14 N10         -0.6100     0.6420     1.3450 na         1 NSI      -0.080700
     15 C12         -1.1180    -0.5980     1.9760 c3         1 NSI       0.125900
     16 C34         -2.1130    -1.3860     1.1230 ca         1 NSI      -0.137300
     17 C37         -2.2320    -2.7760     1.3150 ca         1 NSI      -0.058000
     18 C38         -3.1290    -3.5230     0.5370 ca         1 NSI      -0.099000
     19 C36         -2.9140    -0.7530     0.1490 ca         1 NSI      -0.041000
     20 C39         -3.8110    -1.4980    -0.6450 ca         1 NSI      -0.197300
     21 C43         -4.6700    -0.7860    -1.6960 c3         1 NSI       0.357300
     22 F47         -5.1580    -1.6300    -2.6330 f          1 NSI      -0.113333
     23 F46         -5.7320    -0.1720    -1.1270 f          1 NSI      -0.113333
     24 F45         -3.9720     0.1650    -2.3590 f          1 NSI      -0.113333
     25 C35         -3.9160    -2.8910    -0.4390 ca         1 NSI      -0.048000
     26 C6          -1.0420     1.8900     1.7750 ca         1 NSI      -0.029200
     27 C2          -2.1290     2.2260     2.6030 ca         1 NSI      -0.135000
     28 C5          -2.3760     3.5900     2.8600 ca         1 NSI      -0.078000
     29 C4          -1.5580     4.5840     2.2780 ca         1 NSI      -0.143000
     30 C1          -0.4860     4.2230     1.4370 ca         1 NSI      -0.047000
     31 C7           0.7150     2.1540     0.3830 cd         1 NSI       0.005600
     32 C3          -0.2480     2.8540     1.2180 ca         1 NSI      -0.109800
     33 C14          1.5730     2.8930    -0.5710 ca         1 NSI      -0.081800
     34 C20          2.3130     4.0120    -0.1370 ca         1 NSI      -0.049500
     35 C21          3.1170     4.7330    -1.0370 ca         1 NSI      -0.177500
     36 C19          1.6460     2.5220    -1.9300 ca         1 NSI      -0.049500
     37 C22          2.4470     3.2440    -2.8330 ca         1 NSI      -0.177500
     38 C18          3.1900     4.3560    -2.3860 ca         1 NSI       0.146100
     39 O27          3.9950     5.1020    -3.2230 os         1 NSI      -0.343100
     40 C28          4.1390     4.7950    -4.6210 c3         1 NSI       0.148900
     41 H55          1.6880    -4.3070     1.4900 ha         1 NSI       0.139000
     42 H56          3.7580    -4.8320     2.7540 ha         1 NSI       0.120500
     43 H53          5.9800    -4.1130     1.8860 ha         1 NSI       0.117000
     44 H57          6.1300    -2.8570    -0.2610 ha         1 NSI       0.120500
     45 H54          4.0760    -2.3160    -1.5430 ha         1 NSI       0.139000
     46 HN17        -0.2640    -1.6100     0.0490 hn         1 NSI       0.347500
     47 H121        -0.2550    -1.2340     2.2130 h1         1 NSI       0.067200
     48 H122        -1.5860    -0.3590     2.9370 h1         1 NSI       0.067200
     49 H37         -1.6270    -3.2810     2.0660 ha         1 NSI       0.119000
     50 H38         -3.2140    -4.5960     0.6890 ha         1 NSI       0.132000
     51 H36         -2.8470     0.3240     0.0050 ha         1 NSI       0.134000
     52 H35         -4.6070    -3.4900    -1.0280 ha         1 NSI       0.133000
     53 H2          -2.7790     1.4670     3.0310 ha         1 NSI       0.117000
     54 H5          -3.2090     3.8780     3.4970 ha         1 NSI       0.113000
     55 H4          -1.7660     5.6340     2.4680 ha         1 NSI       0.116000
     56 H1           0.1140     4.9940     0.9620 ha         1 NSI       0.124000
     57 H20          2.2940     4.3070     0.9090 ha         1 NSI       0.123500
     58 H21          3.6900     5.5860    -0.6850 ha         1 NSI       0.123000
     59 H19          1.0570     1.6860    -2.3010 ha         1 NSI       0.123500
     60 H22          2.4730     2.9280    -3.8720 ha         1 NSI       0.123000
     61 H281         4.8220     5.5080    -5.0980 h1         1 NSI       0.041033
     62 H282         4.5490     3.7870    -4.7590 h1         1 NSI       0.041033
     63 H283         3.1710     4.8560    -5.1360 h1         1 NSI       0.041033
@<TRIPOS>BOND
     1     1     2 2   
     2     2     3 2   
     3     2     4 1   
     4     2    10 1   
     5     4     5 ar  
     6     4     9 ar  
     7     5     6 ar  
     8     5    41 1   
     9     6     7 ar  
    10     6    42 1   
    11     7     8 ar  
    12     7    43 1   
    13     8     9 ar  
    14     8    44 1   
    15     9    45 1   
    16    10    11 1   
    17    10    46 1   
    18    11    12 2   
    19    11    13 1   
    20    13    14 1   
    21    13    31 2   
    22    14    15 1   
    23    14    26 1   
    24    15    16 1   
    25    15    47 1   
    26    15    48 1   
    27    16    17 ar  
    28    16    19 ar  
    29    17    18 ar  
    30    17    49 1   
    31    18    25 ar  
    32    18    50 1   
    33    19    20 ar  
    34    19    51 1   
    35    20    21 1   
    36    20    25 ar  
    37    21    22 1   
    38    21    23 1   
    39    21    24 1   
    40    25    52 1   
    41    26    27 ar  
    42    26    32 ar  
    43    27    28 ar  
    44    27    53 1   
    45    28    29 ar  
    46    28    54 1   
    47    29    30 ar  
    48    29    55 1   
    49    30    32 ar  
    50    30    56 1   
    51    31    32 1   
    52    31    33 1   
    53    33    34 ar  
    54    33    36 ar  
    55    34    35 ar  
    56    34    57 1   
    57    35    38 ar  
    58    35    58 1   
    59    36    37 ar  
    60    36    59 1   
    61    37    38 ar  
    62    37    60 1   
    63    38    39 1   
    64    39    40 1   
    65    40    61 1   
    66    40    62 1   
    67    40    63 1   
@<TRIPOS>SUBSTRUCTURE
     1 NSI         1 TEMP              0 ****  ****    0 ROOT
