@<TRIPOS>MOLECULE
NSI
   63    67     1     0     0
SMALL
abcg2


@<TRIPOS>ATOM
      1 O52          0.6260    -3.7870    -0.2010 o          1 NSI      -0.531500
      2 S48          1.3660    -3.1620     0.8720 sy         1 NSI       1.177300
      3 O50          1.4450    -3.7950     2.1740 o          1 NSI      -0.531500
      4 C51          2.9940    -2.7770     0.3140 ca         1 NSI      -0.298500
      5 C55          3.9710    -2.4940     1.2610 ca         1 NSI      -0.003000
      6 C56          5.2530    -2.1970     0.8280 ca         1 NSI      -0.131000
      7 C53          5.5460    -2.1890    -0.5310 ca         1 NSI      -0.048000
      8 C57          4.5590    -2.4780    -1.4630 ca         1 NSI      -0.131000
      9 C54          3.2700    -2.7740    -1.0460 ca         1 NSI      -0.003000
     10 N17          0.6680    -1.6680     1.2090 ns         1 NSI      -0.583300
     11 C15          0.4140    -0.7150     0.2430 c          1 NSI       0.671300
     12 O16          0.7140    -0.8770    -0.9140 o          1 NSI      -0.530100
     13 C13         -0.2050     0.5150     0.7700 cc         1 NSI      -0.144300
     14 N10         -1.2470     0.4950     1.6780 na         1 NSI      -0.080700
     15 C12         -2.1160    -0.6400     1.9340 c3         1 NSI       0.125900
     16 C34         -2.6240    -1.2580     0.6570 ca         1 NSI      -0.137300
     17 C37         -2.5080    -2.6250     0.4380 ca         1 NSI      -0.058000
     18 C38         -2.9770    -3.1900    -0.7380 ca         1 NSI      -0.099000
     19 C36         -3.2100    -0.4610    -0.3170 ca         1 NSI      -0.041000
     20 C39         -3.6790    -1.0260    -1.4960 ca         1 NSI      -0.197300
     21 C43         -4.2860    -0.1240    -2.5230 c3         1 NSI       0.357300
     22 F47         -4.8090    -0.7910    -3.5550 f          1 NSI      -0.113333
     23 F46         -5.2670     0.6290    -2.0050 f          1 NSI      -0.113333
     24 F45         -3.3810     0.7290    -3.0270 f          1 NSI      -0.113333
     25 C35         -3.5650    -2.3940    -1.7100 ca         1 NSI      -0.048000
     26 C6          -1.5160     1.7850     2.0480 ca         1 NSI      -0.029200
     27 C2          -2.5010     2.2920     2.8990 ca         1 NSI      -0.135000
     28 C5          -2.5340     3.6570     3.0910 ca         1 NSI      -0.078000
     29 C4          -1.6200     4.5140     2.4510 ca         1 NSI      -0.143000
     30 C1          -0.6570     4.0130     1.6020 ca         1 NSI      -0.047000
     31 C7           0.2250     1.8040     0.5630 cd         1 NSI       0.005600
     32 C3          -0.6000     2.6300     1.3910 ca         1 NSI      -0.109800
     33 C14          1.3430     2.2790    -0.2590 ca         1 NSI      -0.081800
     34 C20          2.3560     3.0520     0.3170 ca         1 NSI      -0.049500
     35 C21          3.4120     3.5290    -0.4340 ca         1 NSI      -0.177500
     36 C19          1.4220     2.0200    -1.6230 ca         1 NSI      -0.049500
     37 C22          2.4760     2.4940    -2.3930 ca         1 NSI      -0.177500
     38 C18          3.4840     3.2490    -1.8000 ca         1 NSI       0.146100
     39 O27          4.5480     3.7490    -2.4570 os         1 NSI      -0.343100
     40 C28          4.6790     3.4730    -3.8370 c3         1 NSI       0.148900
     41 H55          3.7490    -2.5090     2.3200 ha         1 NSI       0.139000
     42 H56          6.0250    -1.9770     1.5530 ha         1 NSI       0.120500
     43 H53          6.5490    -1.9580    -0.8630 ha         1 NSI       0.117000
     44 H57          4.7900    -2.4750    -2.5190 ha         1 NSI       0.120500
     45 H54          2.5010    -2.9990    -1.7700 ha         1 NSI       0.139000
     46 HN17         0.6730    -1.4060     2.1880 hn         1 NSI       0.347500
     47 H121        -1.6110    -1.3900     2.5430 h1         1 NSI       0.067200
     48 H122        -2.9530    -0.2810     2.5310 h1         1 NSI       0.067200
     49 H37         -2.0410    -3.2500     1.1880 ha         1 NSI       0.119000
     50 H38         -2.8780    -4.2540    -0.9040 ha         1 NSI       0.132000
     51 H36         -3.2990     0.6070    -0.1490 ha         1 NSI       0.134000
     52 H35         -3.9230    -2.8490    -2.6230 ha         1 NSI       0.133000
     53 H2          -3.2110     1.6480     3.4010 ha         1 NSI       0.117000
     54 H5          -3.2810     4.0800     3.7490 ha         1 NSI       0.113000
     55 H4          -1.6810     5.5800     2.6280 ha         1 NSI       0.116000
     56 H1           0.0380     4.6740     1.1020 ha         1 NSI       0.124000
     57 H20          2.3240     3.2740     1.3770 ha         1 NSI       0.123500
     58 H21          4.1910     4.1170     0.0340 ha         1 NSI       0.123000
     59 H19          0.6430     1.4480    -2.1060 ha         1 NSI       0.123500
     60 H22          2.4890     2.2650    -3.4500 ha         1 NSI       0.123000
     61 H281         5.5980     3.9530    -4.1630 h1         1 NSI       0.041033
     62 H282         4.7530     2.4000    -4.0330 h1         1 NSI       0.041033
     63 H283         3.8460     3.8780    -4.4170 h1         1 NSI       0.041033
@<TRIPOS>BOND
     1     1     2 2   
     2     2     3 2   
     3     2     4 1   
     4     2    10 1   
     5     4     5 ar  
     6     4     9 ar  
     7     5     6 ar  
     8     5    41 1   
     9     6     7 ar  
    10     6    42 1   
    11     7     8 ar  
    12     7    43 1   
    13     8     9 ar  
    14     8    44 1   
    15     9    45 1   
    16    10    11 1   
    17    10    46 1   
    18    11    12 2   
    19    11    13 1   
    20    13    14 1   
    21    13    31 2   
    22    14    15 1   
    23    14    26 1   
    24    15    16 1   
    25    15    47 1   
    26    15    48 1   
    27    16    17 ar  
    28    16    19 ar  
    29    17    18 ar  
    30    17    49 1   
    31    18    25 ar  
    32    18    50 1   
    33    19    20 ar  
    34    19    51 1   
    35    20    21 1   
    36    20    25 ar  
    37    21    22 1   
    38    21    23 1   
    39    21    24 1   
    40    25    52 1   
    41    26    27 ar  
    42    26    32 ar  
    43    27    28 ar  
    44    27    53 1   
    45    28    29 ar  
    46    28    54 1   
    47    29    30 ar  
    48    29    55 1   
    49    30    32 ar  
    50    30    56 1   
    51    31    32 1   
    52    31    33 1   
    53    33    34 ar  
    54    33    36 ar  
    55    34    35 ar  
    56    34    57 1   
    57    35    38 ar  
    58    35    58 1   
    59    36    37 ar  
    60    36    59 1   
    61    37    38 ar  
    62    37    60 1   
    63    38    39 1   
    64    39    40 1   
    65    40    61 1   
    66    40    62 1   
    67    40    63 1   
@<TRIPOS>SUBSTRUCTURE
     1 NSI         1 TEMP              0 ****  ****    0 ROOT
