@<TRIPOS>MOLECULE
NSJ
   29    30     1     0     0
SMALL
No Charge or Current Charge


@<TRIPOS>ATOM
      1 N1          -1.1440     0.6600     0.2730 n3         1 NSJ      -0.731600
      2 C4           1.7850     1.2370    -0.7540 ca         1 NSJ      -0.127000
      3 C5           1.3730     0.6300     0.4490 ca         1 NSJ      -0.052300
      4 C6           0.0430     1.0210     1.0910 c3         1 NSJ       0.216100
      5 C7          -1.2590    -0.8180     0.0560 c6         1 NSJ       0.166800
      6 C8          -2.3580    -1.2100    -0.9660 c6         1 NSJ       0.065100
      7 C10         -2.3990     1.2450     0.8380 c6         1 NSJ       0.166800
      8 C1           3.4220    -0.6970     0.4540 ca         1 NSJ       0.137100
      9 C11          2.2010    -0.3400     1.0490 ca         1 NSJ      -0.146000
     10 C2           3.8270    -0.0880    -0.7440 ca         1 NSJ      -0.205000
     11 C3           3.0070     0.8800    -1.3500 ca         1 NSJ      -0.074000
     12 C9          -3.6300     1.0940    -0.0940 c6         1 NSJ       0.065100
     13 O1           4.2130    -1.6360     1.0440 oh         1 NSJ      -0.536100
     14 S1          -4.0610    -0.6660    -0.4790 ss         1 NSJ      -0.448000
     15 H3           0.0620     2.1070     1.2530 h1         1 NSJ       0.042200
     16 H4          -0.0310     0.5560     2.0830 h1         1 NSJ       0.042200
     17 H5          -0.3080    -1.2240    -0.3190 h1         1 NSJ       0.044950
     18 H6          -1.4640    -1.3270     1.0090 h1         1 NSJ       0.044950
     19 H7          -2.1220    -0.7590    -1.9400 h1         1 NSJ       0.073700
     20 H8          -2.3690    -2.3020    -1.0960 h1         1 NSJ       0.073700
     21 H9          -2.6310     0.7810     1.8090 h1         1 NSJ       0.044950
     22 H10         -2.2560     2.3190     1.0290 h1         1 NSJ       0.044950
     23 H11          1.8970    -0.8190     1.9760 ha         1 NSJ       0.125000
     24 H12          4.7710    -0.3600    -1.2110 ha         1 NSJ       0.113000
     25 H13          3.3170     1.3520    -2.2800 ha         1 NSJ       0.112000
     26 H14         -4.5050     1.5700     0.3700 h1         1 NSJ       0.073700
     27 H15         -3.4290     1.6120    -1.0420 h1         1 NSJ       0.073700
     28 H16          5.0150    -1.7530     0.4920 ho         1 NSJ       0.464000
     29 H2           1.1510     1.9830    -1.2280 ha         1 NSJ       0.131000
@<TRIPOS>BOND
     1     1     4 1   
     2     1     5 1   
     3     1     7 1   
     4     2     3 ar  
     5     2    11 ar  
     6     2    29 1   
     7     3     4 1   
     8     3     9 ar  
     9     4    15 1   
    10     4    16 1   
    11     5     6 1   
    12     5    17 1   
    13     5    18 1   
    14     6    14 1   
    15     6    19 1   
    16     6    20 1   
    17     7    12 1   
    18     7    21 1   
    19     7    22 1   
    20     8     9 ar  
    21     8    10 ar  
    22     8    13 1   
    23     9    23 1   
    24    10    11 ar  
    25    10    24 1   
    26    11    25 1   
    27    12    14 1   
    28    12    26 1   
    29    12    27 1   
    30    13    28 1   
@<TRIPOS>SUBSTRUCTURE
     1 NSJ         1 TEMP              0 ****  ****    0 ROOT
