@<TRIPOS>MOLECULE
NSJ
   29    30     1     0     0
SMALL
abcg2


@<TRIPOS>ATOM
      1 N1          -1.1390     0.5560     0.3260 n3         1 NSJ      -0.731600
      2 C4           1.5140     0.8110    -0.8440 ca         1 NSJ      -0.127000
      3 C5           1.3160     0.4140     0.4770 ca         1 NSJ      -0.052300
      4 C6           0.0160     0.7020     1.1860 c3         1 NSJ       0.216100
      5 C7          -1.3740    -0.8360    -0.0140 c6         1 NSJ       0.166800
      6 C8          -2.3970    -0.9900    -1.1230 c6         1 NSJ       0.065100
      7 C10         -2.3120     1.2000     0.8890 c6         1 NSJ       0.166800
      8 C1           3.5760    -0.4410     0.5480 ca         1 NSJ       0.137100
      9 C11          2.3460    -0.2150     1.1630 ca         1 NSJ      -0.146000
     10 C2           3.7730    -0.0450    -0.7710 ca         1 NSJ      -0.205000
     11 C3           2.7360     0.5770    -1.4560 ca         1 NSJ      -0.074000
     12 C9          -3.4470     1.2910    -0.1150 c6         1 NSJ       0.065100
     13 O1           4.5340    -1.0540     1.2750 oh         1 NSJ      -0.536100
     14 S1          -4.0200    -0.3460    -0.6370 ss         1 NSJ      -0.448000
     15 H3           0.0400     1.7370     1.5420 h1         1 NSJ       0.042200
     16 H4          -0.0500     0.0730     2.0890 h1         1 NSJ       0.042200
     17 H5          -0.4340    -1.2700    -0.3630 h1         1 NSJ       0.044950
     18 H6          -1.6950    -1.4190     0.8650 h1         1 NSJ       0.044950
     19 H7          -2.0560    -0.4770    -2.0240 h1         1 NSJ       0.073700
     20 H8          -2.5330    -2.0440    -1.3640 h1         1 NSJ       0.073700
     21 H9          -2.6700     0.6880     1.7970 h1         1 NSJ       0.044950
     22 H10         -2.0350     2.2160     1.1800 h1         1 NSJ       0.044950
     23 H11          2.1990    -0.5380     2.1880 ha         1 NSJ       0.125000
     24 H12          4.7230    -0.2230    -1.2630 ha         1 NSJ       0.113000
     25 H13          2.8930     0.8810    -2.4830 ha         1 NSJ       0.112000
     26 H14         -4.3020     1.8000     0.3300 h1         1 NSJ       0.073700
     27 H15         -3.1300     1.8620    -0.9900 h1         1 NSJ       0.073700
     28 H16          5.3380    -1.1520     0.7530 ho         1 NSJ       0.464000
     29 H2           0.7090     1.2880    -1.3870 ha         1 NSJ       0.131000
@<TRIPOS>BOND
     1     1     4 1   
     2     1     5 1   
     3     1     7 1   
     4     2     3 ar  
     5     2    11 ar  
     6     2    29 1   
     7     3     4 1   
     8     3     9 ar  
     9     4    15 1   
    10     4    16 1   
    11     5     6 1   
    12     5    17 1   
    13     5    18 1   
    14     6    14 1   
    15     6    19 1   
    16     6    20 1   
    17     7    12 1   
    18     7    21 1   
    19     7    22 1   
    20     8     9 ar  
    21     8    10 ar  
    22     8    13 1   
    23     9    23 1   
    24    10    11 ar  
    25    10    24 1   
    26    11    25 1   
    27    12    14 1   
    28    12    26 1   
    29    12    27 1   
    30    13    28 1   
@<TRIPOS>SUBSTRUCTURE
     1 NSJ         1 TEMP              0 ****  ****    0 ROOT
