@<TRIPOS>MOLECULE
NSK
   33    32     1     0     0
SMALL
No Charge or Current Charge


@<TRIPOS>ATOM
      1 O1          -5.0670     3.0020    -0.8760 o          1 NSK      -0.758000
      2 O2          -4.3520     4.8120     0.0420 o          1 NSK      -0.758000
      3 C1          -4.1740     3.6900    -0.4070 c          1 NSK       0.714000
      4 C2          -2.7360     3.1440    -0.4500 c3         1 NSK      -0.196400
      5 C3          -2.0390     3.5410    -1.7820 c3         1 NSK      -0.135400
      6 O3           0.3240     3.5120    -1.2390 o          1 NSK      -0.647100
      7 C4          -0.6020     3.0070    -1.8620 c          1 NSK       0.599100
      8 N1          -0.4270     1.9410    -2.7200 ns         1 NSK      -0.476900
      9 C5           0.8490     1.2190    -2.9540 c3         1 NSK      -0.035300
     10 C6           1.0180     0.8850    -4.4710 c          1 NSK       0.715000
     11 O4           0.1060     0.3060    -5.0490 o          1 NSK      -0.734000
     12 C7           0.9670    -0.0570    -2.0800 c3         1 NSK      -0.068400
     13 C8           0.9680     0.2060    -0.5550 c3         1 NSK      -0.079400
     14 C9           1.1650    -1.0780     0.2810 c3         1 NSK      -0.077400
     15 C10          1.1610    -0.8090     1.8010 c3         1 NSK       0.141800
     16 N2           1.3510    -2.0500     2.5730 n8         1 NSK      -0.999200
     17 O5           2.0210     1.2890    -5.0440 o          1 NSK      -0.734000
     18 H21         -2.1340     3.5920     0.3500 hc         1 NSK       0.026700
     19 H22         -2.7430     2.0470    -0.4330 hc         1 NSK       0.026700
     20 H31         -2.0120     4.6350    -1.8470 hc         1 NSK       0.051200
     21 H32         -2.6330     3.1370    -2.6120 hc         1 NSK       0.051200
     22 HN1         -1.2510     1.6150    -3.2120 hn         1 NSK       0.285500
     23 H5           1.6780     1.8890    -2.6900 h1         1 NSK       0.056700
     24 H71          0.1460    -0.7420    -2.3270 hc         1 NSK       0.038700
     25 H72          1.8980    -0.5740    -2.3470 hc         1 NSK       0.038700
     26 H81          0.0200     0.6730    -0.2640 hc         1 NSK       0.037200
     27 H82          1.7660     0.9190    -0.3130 hc         1 NSK       0.037200
     28 H91          2.1160    -1.5480    -0.0000 hc         1 NSK       0.036200
     29 H92          0.3680    -1.7910     0.0360 hc         1 NSK       0.036200
     30 H101         1.9690    -0.1090     2.0550 h1         1 NSK       0.026200
     31 H102         0.2030    -0.3560     2.0930 h1         1 NSK       0.026200
     32 HN21         0.5580    -2.6780     2.3940 hn         1 NSK       0.377500
     33 HN22         1.2700    -1.8360     3.5750 hn         1 NSK       0.377500
@<TRIPOS>BOND
     1     1     3 1   
     2     2     3 1   
     3     3     4 1   
     4     4     5 1   
     5     4    18 1   
     6     4    19 1   
     7     5     7 1   
     8     5    20 1   
     9     5    21 1   
    10     6     7 2   
    11     7     8 1   
    12     8     9 1   
    13     8    22 1   
    14     9    10 1   
    15     9    12 1   
    16     9    23 1   
    17    10    11 1   
    18    10    17 1   
    19    12    13 1   
    20    12    24 1   
    21    12    25 1   
    22    13    14 1   
    23    13    26 1   
    24    13    27 1   
    25    14    15 1   
    26    14    28 1   
    27    14    29 1   
    28    15    16 1   
    29    15    30 1   
    30    15    31 1   
    31    16    32 1   
    32    16    33 1   
@<TRIPOS>SUBSTRUCTURE
     1 NSK         1 TEMP              0 ****  ****    0 ROOT
