@<TRIPOS>MOLECULE
NSK
   33    32     1     0     0
SMALL
abcg2


@<TRIPOS>ATOM
      1 O1          -4.6470     5.4920     0.1100 o          1 NSK      -0.758000
      2 O2          -5.0660     4.2220    -1.6710 o          1 NSK      -0.758000
      3 C1          -4.3120     4.7180    -0.8110 c          1 NSK       0.714000
      4 C2          -2.8120     4.3780    -0.8870 c3         1 NSK      -0.196400
      5 C3          -2.4570     3.2540    -1.8470 c3         1 NSK      -0.135400
      6 O3          -0.2020     4.0220    -2.1270 o          1 NSK      -0.647100
      7 C4          -0.9640     3.0680    -2.0040 c          1 NSK       0.599100
      8 N1          -0.5320     1.7980    -1.9910 ns         1 NSK      -0.476900
      9 C5           0.8160     1.4320    -2.3540 c3         1 NSK      -0.035300
     10 C6           1.0830     1.5580    -3.8780 c          1 NSK       0.715000
     11 O4           0.1110     1.7620    -4.6240 o          1 NSK      -0.734000
     12 C7           1.1200     0.0170    -1.8650 c3         1 NSK      -0.068400
     13 C8           1.0240    -0.1490    -0.3530 c3         1 NSK      -0.079400
     14 C9           1.4000    -1.5510     0.1110 c3         1 NSK      -0.077400
     15 C10          1.2920    -1.7180     1.6190 c3         1 NSK       0.141800
     16 N2           1.6440    -3.0720     2.0240 n8         1 NSK      -0.999200
     17 O5           2.2780     1.4220    -4.2130 o          1 NSK      -0.734000
     18 H21         -2.2780     5.2880    -1.1770 hc         1 NSK       0.026700
     19 H22         -2.4540     4.1390     0.1190 hc         1 NSK       0.026700
     20 H31         -2.8610     3.4820    -2.8370 hc         1 NSK       0.051200
     21 H32         -2.9330     2.3210    -1.5360 hc         1 NSK       0.051200
     22 HN1         -1.2290     1.0710    -2.0110 hn         1 NSK       0.285500
     23 H5           1.4980     2.1170    -1.8420 h1         1 NSK       0.056700
     24 H71          0.4460    -0.6950    -2.3580 hc         1 NSK       0.038700
     25 H72          2.1290    -0.2370    -2.1960 hc         1 NSK       0.038700
     26 H81          0.0100     0.0820    -0.0130 hc         1 NSK       0.037200
     27 H82          1.6800     0.5840     0.1290 hc         1 NSK       0.037200
     28 H91          2.4220    -1.7860    -0.2040 hc         1 NSK       0.036200
     29 H92          0.7480    -2.2820    -0.3800 hc         1 NSK       0.036200
     30 H101         1.9860    -1.0250     2.1040 h1         1 NSK       0.026200
     31 H102         0.2840    -1.4140     1.9380 h1         1 NSK       0.026200
     32 HN21         0.9500    -3.7160     1.6620 hn         1 NSK       0.377500
     33 HN22         1.5800    -3.1490     3.0310 hn         1 NSK       0.377500
@<TRIPOS>BOND
     1     1     3 1   
     2     2     3 1   
     3     3     4 1   
     4     4     5 1   
     5     4    18 1   
     6     4    19 1   
     7     5     7 1   
     8     5    20 1   
     9     5    21 1   
    10     6     7 2   
    11     7     8 1   
    12     8     9 1   
    13     8    22 1   
    14     9    10 1   
    15     9    12 1   
    16     9    23 1   
    17    10    11 1   
    18    10    17 1   
    19    12    13 1   
    20    12    24 1   
    21    12    25 1   
    22    13    14 1   
    23    13    26 1   
    24    13    27 1   
    25    14    15 1   
    26    14    28 1   
    27    14    29 1   
    28    15    16 1   
    29    15    30 1   
    30    15    31 1   
    31    16    32 1   
    32    16    33 1   
@<TRIPOS>SUBSTRUCTURE
     1 NSK         1 TEMP              0 ****  ****    0 ROOT
