@<TRIPOS>MOLECULE
NSL
   25    26     1     0     0
SMALL
No Charge or Current Charge


@<TRIPOS>ATOM
      1 C01          5.0170    -0.1730    -0.1160 ca         1 NSL      -0.093000
      2 C02          4.3470     1.0620    -0.0750 ca         1 NSL      -0.120000
      3 C03          2.9580     1.1020     0.1430 ca         1 NSL      -0.076500
      4 C04          2.2320    -0.0920     0.3180 ca         1 NSL       0.080400
      5 C05          2.9080    -1.3260     0.2790 ca         1 NSL      -0.076500
      6 C06          4.2970    -1.3670     0.0610 ca         1 NSL      -0.120000
      7 C09         -1.2790    -0.0530    -0.2670 ca         1 NSL       0.035400
      8 C10         -2.0030    -1.2480    -0.0940 ca         1 NSL      -0.031000
      9 C11         -3.3930    -1.2050     0.1240 ca         1 NSL      -0.190000
     10 C12         -4.0600     0.0280     0.1680 ca         1 NSL       0.162100
     11 C13         -3.3430     1.2230    -0.0070 ca         1 NSL      -0.190000
     12 C14         -1.9530     1.1830    -0.2260 ca         1 NSL      -0.031000
     13 N07          0.8430    -0.0510     0.5430 ne         1 NSL      -0.211400
     14 N08          0.1170    -0.0940    -0.4930 nf         1 NSL      -0.194400
     15 O15         -5.4050     0.0580     0.3790 oh         1 NSL      -0.528100
     16 H1           6.0910    -0.2040    -0.2850 ha         1 NSL       0.114000
     17 H2           4.9030     1.9870    -0.2110 ha         1 NSL       0.115500
     18 H3           2.4420     2.0590     0.1750 ha         1 NSL       0.128500
     19 H4           2.3540    -2.2520     0.4170 ha         1 NSL       0.128500
     20 H5           4.8150    -2.3240     0.0310 ha         1 NSL       0.115500
     21 H6          -1.4870    -2.2050    -0.1280 ha         1 NSL       0.131500
     22 H7          -3.9490    -2.1290     0.2590 ha         1 NSL       0.124500
     23 H8          -3.8530     2.1830     0.0240 ha         1 NSL       0.124500
     24 H9          -1.3980     2.1080    -0.3620 ha         1 NSL       0.131500
     25 H10         -5.6980     0.9940     0.3780 ho         1 NSL       0.469000
@<TRIPOS>BOND
     1     1     2 ar  
     2     1     6 ar  
     3     1    16 1   
     4     2     3 ar  
     5     2    17 1   
     6     3     4 ar  
     7     3    18 1   
     8     4     5 ar  
     9     4    13 1   
    10     5     6 ar  
    11     5    19 1   
    12     6    20 1   
    13     7     8 ar  
    14     7    12 ar  
    15     7    14 1   
    16     8     9 ar  
    17     8    21 1   
    18     9    10 ar  
    19     9    22 1   
    20    10    11 ar  
    21    10    15 1   
    22    11    12 ar  
    23    11    23 1   
    24    12    24 1   
    25    13    14 2   
    26    15    25 1   
@<TRIPOS>SUBSTRUCTURE
     1 NSL         1 TEMP              0 ****  ****    0 ROOT
