@<TRIPOS>MOLECULE
NSL
   25    26     1     0     0
SMALL
abcg2


@<TRIPOS>ATOM
      1 C01          4.9900    -0.1810    -0.0150 ca         1 NSL      -0.093000
      2 C02          4.4460     1.0950    -0.0390 ca         1 NSL      -0.120000
      3 C03          3.0680     1.2600    -0.0150 ca         1 NSL      -0.076500
      4 C04          2.2280     0.1510     0.0230 ca         1 NSL       0.080400
      5 C05          2.7770    -1.1340     0.0490 ca         1 NSL      -0.076500
      6 C06          4.1520    -1.2920     0.0300 ca         1 NSL      -0.120000
      7 C09         -1.2680    -0.2830     0.0240 ca         1 NSL       0.035400
      8 C10         -2.1090    -1.3920    -0.0630 ca         1 NSL      -0.031000
      9 C11         -3.4830    -1.2510    -0.0290 ca         1 NSL      -0.190000
     10 C12         -4.0420     0.0200     0.0960 ca         1 NSL       0.162100
     11 C13         -3.2060     1.1390     0.1820 ca         1 NSL      -0.190000
     12 C14         -1.8360     0.9880     0.1460 ca         1 NSL      -0.031000
     13 N07          0.8510     0.4350     0.0460 ne         1 NSL      -0.211400
     14 N08          0.1040    -0.5520    -0.0140 nf         1 NSL      -0.194400
     15 O15         -5.3780     0.1180     0.1310 oh         1 NSL      -0.528100
     16 H1           6.0640    -0.3130    -0.0300 ha         1 NSL       0.114000
     17 H2           5.0930     1.9620    -0.0720 ha         1 NSL       0.115500
     18 H3           2.6300     2.2500    -0.0290 ha         1 NSL       0.128500
     19 H4           2.1290    -1.9990     0.0880 ha         1 NSL       0.128500
     20 H5           4.5760    -2.2880     0.0550 ha         1 NSL       0.115500
     21 H6          -1.6690    -2.3770    -0.1590 ha         1 NSL       0.131500
     22 H7          -4.1270    -2.1180    -0.0970 ha         1 NSL       0.124500
     23 H8          -3.6350     2.1300     0.2810 ha         1 NSL       0.124500
     24 H9          -1.2010     1.8610     0.2160 ha         1 NSL       0.131500
     25 H10         -5.6510     1.0380     0.2300 ho         1 NSL       0.469000
@<TRIPOS>BOND
     1     1     2 ar  
     2     1     6 ar  
     3     1    16 1   
     4     2     3 ar  
     5     2    17 1   
     6     3     4 ar  
     7     3    18 1   
     8     4     5 ar  
     9     4    13 1   
    10     5     6 ar  
    11     5    19 1   
    12     6    20 1   
    13     7     8 ar  
    14     7    12 ar  
    15     7    14 1   
    16     8     9 ar  
    17     8    21 1   
    18     9    10 ar  
    19     9    22 1   
    20    10    11 ar  
    21    10    15 1   
    22    11    12 ar  
    23    11    23 1   
    24    12    24 1   
    25    13    14 2   
    26    15    25 1   
@<TRIPOS>SUBSTRUCTURE
     1 NSL         1 TEMP              0 ****  ****    0 ROOT
