@<TRIPOS>MOLECULE
NSM
    6     5     1     0     0
SMALL
bcc


@<TRIPOS>ATOM
      1 O1          -1.2550     2.5160     0.6860 o          1 NSM      -0.160700
      2 N           -0.4190     1.9610     0.0370 n2         1 NSM      -0.060800
      3 C1           0.2040     0.8200     0.6910 c3         1 NSM       0.000400
      4 H11          1.2790     1.0090     0.7080 h1         1 NSM       0.073700
      5 H12          0.0500    -0.0430     0.0410 h1         1 NSM       0.073700
      6 H13         -0.1800     0.6310     1.6930 h1         1 NSM       0.073700
@<TRIPOS>BOND
     1     1     2 2   
     2     2     3 1   
     3     3     4 1   
     4     3     5 1   
     5     3     6 1   
@<TRIPOS>SUBSTRUCTURE
     1 NSM         1 TEMP              0 ****  ****    0 ROOT
