@<TRIPOS>MOLECULE
NSM
    6     5     1     0     0
SMALL
No Charge or Current Charge


@<TRIPOS>ATOM
      1 O1          -1.4400     2.3260     0.4470 o          1 NSM      -0.160700
      2 N           -0.2450     2.1680     0.2660 n2         1 NSM      -0.060800
      3 C1           0.2420     0.8610     0.7000 c3         1 NSM       0.000400
      4 H11          1.3190     0.7720     0.5150 h1         1 NSM       0.073700
      5 H12         -0.2650     0.0540     0.1550 h1         1 NSM       0.073700
      6 H13          0.0680     0.7140     1.7730 h1         1 NSM       0.073700
@<TRIPOS>BOND
     1     1     2 2   
     2     2     3 1   
     3     3     4 1   
     4     3     5 1   
     5     3     6 1   
@<TRIPOS>SUBSTRUCTURE
     1 NSM         1 TEMP              0 ****  ****    0 ROOT
