@<TRIPOS>MOLECULE
NSO
   65    69     1     0     0
SMALL
abcg2


@<TRIPOS>ATOM
      1 C10         -0.9630    52.9530    24.4850 ca         1 NSO      -0.101000
      2 N12          0.3780    51.2410    22.5590 nu         1 NSO      -0.928900
      3 C13          1.1850    50.3210    21.8750 ca         1 NSO       0.325000
      4 C15          2.8060    48.5500    22.0870 ca         1 NSO      -0.057000
      5 C17          2.0990    49.2510    19.9060 ca         1 NSO       0.008000
      6 C20          2.8570    48.4340    17.6660 c          1 NSO       0.604300
      7 C22          2.5690    48.6600    16.2240 ce         1 NSO      -0.307200
      8 C26         -0.9820    53.1870    16.8530 ca         1 NSO      -0.102000
      9 C28         -0.5690    51.0420    15.7830 ca         1 NSO       0.265000
     10 C01         -1.6330    53.2420    20.4350 ca         1 NSO       0.430900
     11 C03         -0.5090    52.1710    22.1190 ca         1 NSO       0.438900
     12 C04         -1.1650    53.0180    23.0920 ca         1 NSO      -0.194000
     13 C05         -2.0610    53.9760    22.5510 ca         1 NSO       0.087000
     14 C07         -2.7370    54.8480    23.4360 ca         1 NSO      -0.090000
     15 C08         -2.5340    54.7770    24.7930 ca         1 NSO      -0.102000
     16 C09         -1.6420    53.8240    25.2920 ca         1 NSO       0.132000
     17 C14          1.9750    49.4840    22.6780 ca         1 NSO      -0.195000
     18 C16          2.8820    48.4150    20.7040 ca         1 NSO      -0.157000
     19 C18          1.2520    50.2030    20.4890 ca         1 NSO      -0.188000
     20 C23          3.2530    48.0200    15.2810 c2         1 NSO      -0.234000
     21 C25         -1.3800    52.5700    18.0360 ca         1 NSO       0.280000
     22 C27         -0.5970    52.4440    15.7450 ca         1 NSO      -0.151500
     23 C29         -0.9610    50.4300    16.9890 ca         1 NSO      -0.151500
     24 C30         -1.3670    51.1740    18.0850 ca         1 NSO      -0.102000
     25 C32         -0.9630    49.0870    14.3750 c6         1 NSO       0.155800
     26 C33         -0.2720    48.1960    13.3460 c6         1 NSO       0.156800
     27 C35          0.9450    50.0530    12.4930 c6         1 NSO       0.156800
     28 C36          0.2790    50.9950    13.4950 c6         1 NSO       0.155800
     29 C37         -0.9830    49.2220    11.2450 c3         1 NSO       0.148100
     30 F11         -1.4470    53.7690    26.6350 f          1 NSO      -0.183000
     31 N02         -0.7520    52.2940    20.8310 nb         1 NSO      -0.305000
     32 N06         -2.2930    54.0820    21.2150 nb         1 NSO      -0.283000
     33 N19          2.0950    49.2000    18.5020 ns         1 NSO      -0.146000
     34 N24         -1.8560    53.3690    19.0940 nu         1 NSO      -0.943900
     35 N31         -0.1480    50.2700    14.6900 nh         1 NSO      -0.787400
     36 N34          0.1320    48.8950    12.1280 n3         1 NSO      -0.713600
     37 O21          3.7030    47.6320    18.0560 o          1 NSO      -0.593100
     38 H1          -0.2910    52.2450    24.9490 ha         1 NSO       0.123000
     39 H2           0.4960    51.1960    23.5580 hn         1 NSO       0.501000
     40 H3           3.4110    47.9070    22.7140 ha         1 NSO       0.117000
     41 H4           1.7790    49.3540    15.9560 ha         1 NSO       0.202000
     42 H5          -0.9920    54.2690    16.7900 ha         1 NSO       0.125500
     43 H6          -3.4210    55.5750    23.0170 ha         1 NSO       0.138000
     44 H7          -3.0470    55.4400    25.4770 ha         1 NSO       0.136000
     45 H8           1.9290    49.5750    23.7560 ha         1 NSO       0.110000
     46 H9           3.5310    47.6850    20.2530 ha         1 NSO       0.155000
     47 H10          0.6510    50.8440    19.8680 ha         1 NSO       0.154000
     48 H11          3.0460    48.1760    14.2320 ha         1 NSO       0.177500
     49 H12          4.0390    47.3220    15.5420 ha         1 NSO       0.177500
     50 H13         -0.3250    52.9760    14.8460 ha         1 NSO       0.117500
     51 H14         -0.9540    49.3530    17.0780 ha         1 NSO       0.117500
     52 H15         -1.6780    50.6650    18.9860 ha         1 NSO       0.125500
     53 H16         -1.9510    49.4020    14.0080 h1         1 NSO       0.043950
     54 H17         -1.1240    48.5020    15.2770 h1         1 NSO       0.043950
     55 H18         -0.9400    47.3740    13.0830 h1         1 NSO       0.061200
     56 H19          0.6250    47.7660    13.8000 h1         1 NSO       0.061200
     57 H20          1.8780    49.6850    12.9280 h1         1 NSO       0.061200
     58 H21          1.1950    50.6130    11.5910 h1         1 NSO       0.061200
     59 H22          1.0070    51.7520    13.7840 h1         1 NSO       0.043950
     60 H23         -0.5690    51.5160    13.0250 h1         1 NSO       0.043950
     61 H24         -1.4950    48.3000    10.9610 h1         1 NSO       0.033700
     62 H25         -1.7300    49.9000    11.6800 h1         1 NSO       0.033700
     63 H26         -0.5940    49.6910    10.3390 h1         1 NSO       0.033700
     64 H27          1.4380    49.8240    18.0530 hn         1 NSO       0.161000
     65 H28         -2.3830    54.1910    18.8400 hn         1 NSO       0.513000
@<TRIPOS>BOND
     1     1    12 ar  
     2     1    16 ar  
     3     1    38 1   
     4     2     3 1   
     5     2    11 1   
     6     2    39 1   
     7     3    17 ar  
     8     3    19 ar  
     9     4    17 ar  
    10     4    18 ar  
    11     4    40 1   
    12     5    18 ar  
    13     5    19 ar  
    14     5    33 1   
    15     6     7 1   
    16     6    33 1   
    17     6    37 2   
    18     7    20 2   
    19     7    41 1   
    20     8    21 ar  
    21     8    22 ar  
    22     8    42 1   
    23     9    22 ar  
    24     9    23 ar  
    25     9    35 1   
    26    10    31 ar  
    27    10    32 ar  
    28    10    34 1   
    29    11    12 ar  
    30    11    31 ar  
    31    12    13 ar  
    32    13    14 ar  
    33    13    32 ar  
    34    14    15 ar  
    35    14    43 1   
    36    15    16 ar  
    37    15    44 1   
    38    16    30 1   
    39    17    45 1   
    40    18    46 1   
    41    19    47 1   
    42    20    48 1   
    43    20    49 1   
    44    21    24 ar  
    45    21    34 1   
    46    22    50 1   
    47    23    24 ar  
    48    23    51 1   
    49    24    52 1   
    50    25    26 1   
    51    25    35 1   
    52    25    53 1   
    53    25    54 1   
    54    26    36 1   
    55    26    55 1   
    56    26    56 1   
    57    27    28 1   
    58    27    36 1   
    59    27    57 1   
    60    27    58 1   
    61    28    35 1   
    62    28    59 1   
    63    28    60 1   
    64    29    36 1   
    65    29    61 1   
    66    29    62 1   
    67    29    63 1   
    68    33    64 1   
    69    34    65 1   
@<TRIPOS>SUBSTRUCTURE
     1 NSO         1 TEMP              0 ****  ****    0 ROOT
