@<TRIPOS>MOLECULE
NSO
   65    69     1     0     0
SMALL
No Charge or Current Charge


@<TRIPOS>ATOM
      1 C10         -0.5650    53.2820    24.4710 ca         1 NSO      -0.101000
      2 N12          0.4850    51.2890    22.5890 nu         1 NSO      -0.928900
      3 C13          1.1170    50.2290    21.9300 ca         1 NSO       0.325000
      4 C15          2.1050    48.0080    22.0790 ca         1 NSO      -0.057000
      5 C17          2.0040    49.1410    19.9180 ca         1 NSO       0.008000
      6 C20          2.8820    48.3880    17.6250 c          1 NSO       0.604300
      7 C22          2.8080    48.8360    16.2000 ce         1 NSO      -0.307200
      8 C26         -1.7630    53.0390    16.8540 ca         1 NSO      -0.102000
      9 C28         -0.8750    51.0300    15.7670 ca         1 NSO       0.265000
     10 C01         -1.7950    53.0970    20.5670 ca         1 NSO       0.430900
     11 C03         -0.4520    52.2530    22.2060 ca         1 NSO       0.438900
     12 C04         -0.9760    53.2010    23.1180 ca         1 NSO      -0.194000
     13 C05         -1.9570    54.1010    22.6250 ca         1 NSO       0.087000
     14 C07         -2.5090    55.0620    23.4930 ca         1 NSO      -0.090000
     15 C08         -2.1000    55.1370    24.8350 ca         1 NSO      -0.102000
     16 C09         -1.1300    54.2480    25.3180 ca         1 NSO       0.132000
     17 C14          1.4910    49.1120    22.6910 ca         1 NSO      -0.195000
     18 C16          2.3510    48.0160    20.6970 ca         1 NSO      -0.157000
     19 C18          1.3980    50.2420    20.5500 ca         1 NSO      -0.188000
     20 C23          3.5800    48.3340    15.2030 c2         1 NSO      -0.234000
     21 C25         -1.7690    52.3940    18.1020 ca         1 NSO       0.280000
     22 C27         -1.3170    52.3680    15.6990 ca         1 NSO      -0.151500
     23 C29         -0.9080    50.3770    17.0140 ca         1 NSO      -0.151500
     24 C30         -1.3570    51.0470    18.1670 ca         1 NSO      -0.102000
     25 C32         -0.9110    48.9800    14.2790 c6         1 NSO       0.155800
     26 C33          0.0560    48.1840    13.3380 c6         1 NSO       0.156800
     27 C35          1.0390    50.2510    12.5050 c6         1 NSO       0.156800
     28 C36          0.1070    51.1070    13.4260 c6         1 NSO       0.155800
     29 C37         -0.6750    49.0790    11.1330 c3         1 NSO       0.148100
     30 F11         -0.7340    54.3230    26.6080 f          1 NSO      -0.183000
     31 N02         -0.8700    52.2090    20.9380 nb         1 NSO      -0.305000
     32 N06         -2.3550    54.0400    21.3380 nb         1 NSO      -0.283000
     33 N19          2.2100    49.2160    18.5120 ns         1 NSO      -0.146000
     34 N24         -2.1820    53.1120    19.2350 nu         1 NSO      -0.943900
     35 N31         -0.3970    50.3490    14.6190 nh         1 NSO      -0.787400
     36 N34          0.4360    48.9420    12.1050 n3         1 NSO      -0.713600
     37 O21          3.5280    47.4010    17.9550 o          1 NSO      -0.593100
     38 H1           0.1890    52.6140    24.8790 ha         1 NSO       0.123000
     39 H2           0.6020    51.2500    23.5970 hn         1 NSO       0.501000
     40 H3           2.3790    47.1390    22.6750 ha         1 NSO       0.117000
     41 H4           2.1140    49.6520    15.9950 ha         1 NSO       0.202000
     42 H5          -2.0870    54.0740    16.7770 ha         1 NSO       0.125500
     43 H6          -3.2610    55.7550    23.1220 ha         1 NSO       0.138000
     44 H7          -2.5310    55.8820    25.4990 ha         1 NSO       0.136000
     45 H8           1.2930    49.0870    23.7590 ha         1 NSO       0.110000
     46 H9           2.8070    47.1370    20.2510 ha         1 NSO       0.155000
     47 H10          1.1580    51.1160    19.9560 ha         1 NSO       0.154000
     48 H11          3.5130    48.7050    14.1800 ha         1 NSO       0.177500
     49 H12          4.3030    47.5350    15.3780 ha         1 NSO       0.177500
     50 H13         -1.3230    52.9000    14.7530 ha         1 NSO       0.117500
     51 H14         -0.5740    49.3480    17.1000 ha         1 NSO       0.117500
     52 H15         -1.3860    50.5060    19.1070 ha         1 NSO       0.125500
     53 H16         -1.8910    49.0680    13.7890 h1         1 NSO       0.043950
     54 H17         -1.0640    48.3800    15.1860 h1         1 NSO       0.043950
     55 H18         -0.4130    47.2250    13.0740 h1         1 NSO       0.061200
     56 H19          0.9600    47.9380    13.9140 h1         1 NSO       0.061200
     57 H20          1.9780    50.0750    13.0480 h1         1 NSO       0.061200
     58 H21          1.3040    50.8430    11.6160 h1         1 NSO       0.061200
     59 H22          0.6770    51.9900    13.7530 h1         1 NSO       0.043950
     60 H23         -0.7430    51.4720    12.8310 h1         1 NSO       0.043950
     61 H24         -1.0510    48.0910    10.8360 h1         1 NSO       0.033700
     62 H25         -1.5130    49.6500    11.5540 h1         1 NSO       0.033700
     63 H26         -0.3320    49.5940    10.2260 h1         1 NSO       0.033700
     64 H27          1.7680    50.0150    18.0770 hn         1 NSO       0.161000
     65 H28         -2.7490    53.9310    19.0200 hn         1 NSO       0.513000
@<TRIPOS>BOND
     1     1    12 ar  
     2     1    16 ar  
     3     1    38 1   
     4     2     3 1   
     5     2    11 1   
     6     2    39 1   
     7     3    17 ar  
     8     3    19 ar  
     9     4    17 ar  
    10     4    18 ar  
    11     4    40 1   
    12     5    18 ar  
    13     5    19 ar  
    14     5    33 1   
    15     6     7 1   
    16     6    33 1   
    17     6    37 2   
    18     7    20 2   
    19     7    41 1   
    20     8    21 ar  
    21     8    22 ar  
    22     8    42 1   
    23     9    22 ar  
    24     9    23 ar  
    25     9    35 1   
    26    10    31 ar  
    27    10    32 ar  
    28    10    34 1   
    29    11    12 ar  
    30    11    31 ar  
    31    12    13 ar  
    32    13    14 ar  
    33    13    32 ar  
    34    14    15 ar  
    35    14    43 1   
    36    15    16 ar  
    37    15    44 1   
    38    16    30 1   
    39    17    45 1   
    40    18    46 1   
    41    19    47 1   
    42    20    48 1   
    43    20    49 1   
    44    21    24 ar  
    45    21    34 1   
    46    22    50 1   
    47    23    24 ar  
    48    23    51 1   
    49    24    52 1   
    50    25    26 1   
    51    25    35 1   
    52    25    53 1   
    53    25    54 1   
    54    26    36 1   
    55    26    55 1   
    56    26    56 1   
    57    27    28 1   
    58    27    36 1   
    59    27    57 1   
    60    27    58 1   
    61    28    35 1   
    62    28    59 1   
    63    28    60 1   
    64    29    36 1   
    65    29    61 1   
    66    29    62 1   
    67    29    63 1   
    68    33    64 1   
    69    34    65 1   
@<TRIPOS>SUBSTRUCTURE
     1 NSO         1 TEMP              0 ****  ****    0 ROOT
