@<TRIPOS>MOLECULE
NSP
   20    20     1     0     0
SMALL
No Charge or Current Charge


@<TRIPOS>ATOM
      1 N            0.8680     0.6250    -3.0320 n8         1 NSP      -0.997200
      2 CA           0.0810    -0.4280    -2.3820 c3         1 NSP       0.220100
      3 CP           0.1420    -0.2730    -0.8740 ca         1 NSP      -0.266300
      4 CQ1          1.2660    -0.7420    -0.1690 ca         1 NSP       0.152900
      5 CQ2         -0.8810     0.3090    -0.1040 ca         1 NSP       0.384900
      6 NR1          1.3610    -0.6360     1.1720 nb         1 NSP      -0.219000
      7 NQ2         -2.0310     0.8020    -0.6370 nv         1 NSP      -1.078900
      8 NR2         -0.7990     0.4210     1.2290 nb         1 NSP      -0.275000
      9 CS           0.3230    -0.0550     1.8080 ca         1 NSP       0.176300
     10 CS1          0.4190     0.0620     3.3190 c3         1 NSP      -0.134400
     11 HN1          0.7470     0.5490    -4.0480 hn         1 NSP       0.399000
     12 HN2          0.4440     1.5310    -2.8030 hn         1 NSP       0.399000
     13 HCA1         0.4950    -1.4050    -2.6700 h1         1 NSP       0.027200
     14 HCA2        -0.9540    -0.3790    -2.7460 h1         1 NSP       0.027200
     15 HQ1          2.1040    -1.2120    -0.6820 h4         1 NSP       0.036100
     16 HQ21        -2.7950     1.0340    -0.0060 hn         1 NSP       0.488500
     17 HQ22        -2.2810     0.5650    -1.5930 hn         1 NSP       0.488500
     18 HS11        -0.1050     0.9520     3.6860 hc         1 NSP       0.057033
     19 HS12        -0.0270    -0.8140     3.8050 hc         1 NSP       0.057033
     20 HS13         1.4620     0.1340     3.6510 hc         1 NSP       0.057033
@<TRIPOS>BOND
     1     1     2 1   
     2     1    11 1   
     3     1    12 1   
     4     2     3 1   
     5     2    13 1   
     6     2    14 1   
     7     3     4 ar  
     8     3     5 ar  
     9     4     6 ar  
    10     4    15 1   
    11     5     7 1   
    12     5     8 ar  
    13     6     9 ar  
    14     7    16 1   
    15     7    17 1   
    16     8     9 ar  
    17     9    10 1   
    18    10    18 1   
    19    10    19 1   
    20    10    20 1   
@<TRIPOS>SUBSTRUCTURE
     1 NSP         1 TEMP              0 ****  ****    0 ROOT
