@<TRIPOS>MOLECULE
NSP
   20    20     1     0     0
SMALL
abcg2


@<TRIPOS>ATOM
      1 N            1.2120     0.0330    -3.0540 n8         1 NSP      -0.997200
      2 CA          -0.0680     0.0130    -2.3730 c3         1 NSP       0.220100
      3 CP           0.0830     0.0010    -0.8780 ca         1 NSP      -0.266300
      4 CQ1          1.2900    -0.1040    -0.2350 ca         1 NSP       0.152900
      5 CQ2         -1.0410     0.0980    -0.0230 ca         1 NSP       0.384900
      6 NR1          1.4350    -0.1110     1.0980 nb         1 NSP      -0.219000
      7 NQ2         -2.2880     0.2240    -0.5150 nv         1 NSP      -1.078900
      8 NR2         -0.9050     0.0930     1.3010 nb         1 NSP      -0.275000
      9 CS           0.3210    -0.0090     1.8040 ca         1 NSP       0.176300
     10 CS1          0.4330    -0.0010     3.2970 c3         1 NSP      -0.134400
     11 HN1          1.0640    -0.1420    -4.0390 hn         1 NSP       0.399000
     12 HN2          1.6150     0.9600    -2.9950 hn         1 NSP       0.399000
     13 HCA1        -0.6020    -0.8920    -2.6820 h1         1 NSP       0.027200
     14 HCA2        -0.7220     0.8530    -2.6540 h1         1 NSP       0.027200
     15 HQ1          2.1990    -0.1900    -0.8200 h4         1 NSP       0.036100
     16 HQ21        -3.0640     0.1520     0.1220 hn         1 NSP       0.488500
     17 HQ22        -2.4870     0.0390    -1.4820 hn         1 NSP       0.488500
     18 HS11         0.1460     0.9740     3.6970 hc         1 NSP       0.057033
     19 HS12        -0.2370    -0.7370     3.7400 hc         1 NSP       0.057033
     20 HS13         1.4520    -0.2140     3.6140 hc         1 NSP       0.057033
@<TRIPOS>BOND
     1     1     2 1   
     2     1    11 1   
     3     1    12 1   
     4     2     3 1   
     5     2    13 1   
     6     2    14 1   
     7     3     4 ar  
     8     3     5 ar  
     9     4     6 ar  
    10     4    15 1   
    11     5     7 1   
    12     5     8 ar  
    13     6     9 ar  
    14     7    16 1   
    15     7    17 1   
    16     8     9 ar  
    17     9    10 1   
    18    10    18 1   
    19    10    19 1   
    20    10    20 1   
@<TRIPOS>SUBSTRUCTURE
     1 NSP         1 TEMP              0 ****  ****    0 ROOT
