@<TRIPOS>MOLECULE
NSQ
   38    39     1     0     0
SMALL
No Charge or Current Charge


@<TRIPOS>ATOM
      1 O12          0.0240    -2.6330     1.3620 o          1 NSQ      -0.692200
      2 S10         -0.3800    -3.0110     0.0000 s6         1 NSQ       1.321600
      3 O13          0.4730    -2.4710    -1.0660 o          1 NSQ      -0.692200
      4 O11         -0.7150    -4.4340    -0.1580 o          1 NSQ      -0.692200
      5 C9          -1.9600    -2.1910    -0.2220 c3         1 NSQ      -0.351400
      6 C1          -1.9870    -0.6730     0.0780 c6         1 NSQ       0.212300
      7 O2          -1.4070    -0.0150    -1.0720 os         1 NSQ      -0.439000
      8 C3          -1.2910     1.4250    -0.9690 c6         1 NSQ       0.367300
      9 C4          -2.7140     2.0620    -0.7700 c6         1 NSQ       0.117300
     10 O16         -2.6850     3.5050    -0.6020 oh         1 NSQ      -0.713000
     11 C8          -3.4010     1.4090     0.4640 c6         1 NSQ       0.130300
     12 O15         -4.7300     1.9390     0.6330 oh         1 NSQ      -0.675000
     13 C6          -3.4390    -0.1380     0.3080 c6         1 NSQ       0.147300
     14 O14         -4.0650    -0.7170     1.4690 oh         1 NSQ      -0.700000
     15 O1          -0.4020     1.7740     0.1140 os         1 NSQ      -0.371100
     16 C25          0.9460     1.4740     0.0760 ca         1 NSQ       0.191100
     17 C26          1.7180     1.8370     1.1880 ca         1 NSQ      -0.165000
     18 C27          3.0980     1.5740     1.2240 ca         1 NSQ      -0.015500
     19 C28          3.7270     0.9370     0.1300 ca         1 NSQ      -0.228200
     20 N32          5.1970     0.6520     0.1610 no         1 NSQ       0.703200
     21 O33          5.8370     0.9840     1.1670 o          1 NSQ      -0.423500
     22 O34          5.7080     0.1020    -0.8240 o          1 NSQ      -0.423500
     23 C29          2.9490     0.5710    -0.9920 ca         1 NSQ      -0.015500
     24 C30          1.5690     0.8400    -1.0200 ca         1 NSQ      -0.165000
     25 H91C        -2.2790    -2.3880    -1.2490 h1         1 NSQ       0.086700
     26 H92C        -2.6350    -2.7070     0.4660 h1         1 NSQ       0.086700
     27 H1          -1.3800    -0.4620     0.9710 h1         1 NSQ       0.083700
     28 H6          -4.0340    -0.3770    -0.5860 h1         1 NSQ       0.044700
     29 H3          -0.8750     1.8160    -1.9090 h2         1 NSQ       0.072700
     30 H4          -3.3080     1.8100    -1.6610 h1         1 NSQ       0.057700
     31 H16         -2.2460     3.8910    -1.3960 ho         1 NSQ       0.503000
     32 H8          -2.7930     1.6480     1.3510 h1         1 NSQ       0.069700
     33 H15         -4.6440     2.8960     0.4130 ho         1 NSQ       0.452000
     34 H14         -4.8060    -0.1010     1.6830 ho         1 NSQ       0.505000
     35 H26          1.2400     2.3280     2.0320 ha         1 NSQ       0.159500
     36 H30          1.0040     0.5380    -1.8960 ha         1 NSQ       0.159500
     37 H27          3.6680     1.8690     2.1040 ha         1 NSQ       0.146500
     38 H29          3.4040     0.0740    -1.8490 ha         1 NSQ       0.146500
@<TRIPOS>BOND
     1     1     2 1   
     2     2     3 1   
     3     2     4 1   
     4     2     5 1   
     5     5     6 1   
     6     5    25 1   
     7     5    26 1   
     8     6     7 1   
     9     6    13 1   
    10     6    27 1   
    11     7     8 1   
    12     8     9 1   
    13     8    15 1   
    14     8    29 1   
    15     9    10 1   
    16     9    11 1   
    17     9    30 1   
    18    10    31 1   
    19    11    12 1   
    20    11    13 1   
    21    11    32 1   
    22    12    33 1   
    23    13    14 1   
    24    13    28 1   
    25    14    34 1   
    26    15    16 1   
    27    16    17 ar  
    28    16    24 ar  
    29    17    18 ar  
    30    17    35 1   
    31    18    19 ar  
    32    18    37 1   
    33    19    20 1   
    34    19    23 ar  
    35    20    21 1   
    36    20    22 1   
    37    23    24 ar  
    38    23    38 1   
    39    24    36 1   
@<TRIPOS>SUBSTRUCTURE
     1 NSQ         1 TEMP              0 ****  ****    0 ROOT
