@<TRIPOS>MOLECULE
NSQ
   38    39     1     0     0
SMALL
bcc


@<TRIPOS>ATOM
      1 O12          0.2190    -2.6770     0.6280 o          1 NSQ      -0.692200
      2 S10         -0.6130    -3.0500    -0.5320 s6         1 NSQ       1.210800
      3 O13         -0.0590    -2.6050    -1.8250 o          1 NSQ      -0.692200
      4 O11         -0.9880    -4.4790    -0.5450 o          1 NSQ      -0.692200
      5 C9          -2.1890    -2.1930    -0.2930 c3         1 NSQ      -0.240600
      6 C1          -2.0580    -0.7270     0.0610 c6         1 NSQ       0.189100
      7 O2          -1.4070    -0.0830    -1.0230 os         1 NSQ      -0.392600
      8 C3          -1.1810     1.2750    -0.8800 c6         1 NSQ       0.320900
      9 C4          -2.5010     2.0220    -0.6820 c6         1 NSQ       0.094100
     10 O16         -2.3140     3.3900    -0.4420 oh         1 NSQ      -0.590800
     11 C8          -3.2700     1.4260     0.4910 c6         1 NSQ       0.107100
     12 O15         -4.5690     1.9650     0.5800 oh         1 NSQ      -0.612800
     13 C6          -3.4220    -0.0800     0.3030 c6         1 NSQ       0.124100
     14 O14         -3.9870    -0.6890     1.4360 oh         1 NSQ      -0.577800
     15 O1          -0.3610     1.5850     0.2290 os         1 NSQ      -0.347900
     16 C25          0.9650     1.3740     0.1750 ca         1 NSQ       0.191100
     17 C26          1.7440     2.1990     0.9910 ca         1 NSQ      -0.183000
     18 C27          3.1140     2.0630     1.0170 ca         1 NSQ      -0.033500
     19 C28          3.7130     1.0970     0.2160 ca         1 NSQ      -0.228200
     20 N32          5.1520     0.9560     0.2270 no         1 NSQ       0.323200
     21 O33          5.7920     1.6760     0.9600 o          1 NSQ      -0.233500
     22 O34          5.6520     0.1240    -0.4980 o          1 NSQ      -0.233500
     23 C29          2.9490     0.2630    -0.5900 ca         1 NSQ      -0.033500
     24 C30          1.5730     0.3910    -0.6060 ca         1 NSQ      -0.183000
     25 H91C        -2.7830    -2.3280    -1.2000 h1         1 NSQ       0.086700
     26 H92C        -2.6970    -2.7110     0.5200 h1         1 NSQ       0.086700
     27 H1          -1.4560    -0.6410     0.9740 h1         1 NSQ       0.083700
     28 H6          -4.0440    -0.2470    -0.5900 h1         1 NSQ       0.044700
     29 H3          -0.6850     1.5970    -1.8030 h2         1 NSQ       0.072700
     30 H4          -3.0890     1.8540    -1.5950 h1         1 NSQ       0.057700
     31 H16         -2.1190     3.8300    -1.2760 ho         1 NSQ       0.404000
     32 H8          -2.7130     1.6100     1.4210 h1         1 NSQ       0.069700
     33 H15         -4.5010     2.8830     0.8610 ho         1 NSQ       0.413000
     34 H14         -4.8530    -0.2980     1.5890 ho         1 NSQ       0.406000
     35 H26          1.2620     2.9550     1.5980 ha         1 NSQ       0.177500
     36 H30          0.9920    -0.3030    -1.1970 ha         1 NSQ       0.177500
     37 H27          3.7040     2.7130     1.6470 ha         1 NSQ       0.164500
     38 H29          3.4130    -0.5020    -1.1950 ha         1 NSQ       0.164500
@<TRIPOS>BOND
     1     1     2 1   
     2     2     3 1   
     3     2     4 1   
     4     2     5 1   
     5     5     6 1   
     6     5    25 1   
     7     5    26 1   
     8     6     7 1   
     9     6    13 1   
    10     6    27 1   
    11     7     8 1   
    12     8     9 1   
    13     8    15 1   
    14     8    29 1   
    15     9    10 1   
    16     9    11 1   
    17     9    30 1   
    18    10    31 1   
    19    11    12 1   
    20    11    13 1   
    21    11    32 1   
    22    12    33 1   
    23    13    14 1   
    24    13    28 1   
    25    14    34 1   
    26    15    16 1   
    27    16    17 ar  
    28    16    24 ar  
    29    17    18 ar  
    30    17    35 1   
    31    18    19 ar  
    32    18    37 1   
    33    19    20 1   
    34    19    23 ar  
    35    20    21 1   
    36    20    22 1   
    37    23    24 ar  
    38    23    38 1   
    39    24    36 1   
@<TRIPOS>SUBSTRUCTURE
     1 NSQ         1 TEMP              0 ****  ****    0 ROOT
