@<TRIPOS>MOLECULE
NSR
   39    42     1     0     0
SMALL
No Charge or Current Charge


@<TRIPOS>ATOM
      1 N1           6.2700    -0.4650    17.3000 nb         1 NSR      -0.651000
      2 C4           9.5210    -0.1710    24.4400 c6         1 NSR       0.158600
      3 C5           9.2140    -1.3900    23.5450 c6         1 NSR      -0.105400
      4 C6           9.8920    -1.2040    22.1640 c6         1 NSR      -0.083400
      5 C7           9.0570    -0.2820    21.2400 c          1 NSR       0.595100
      6 C8           7.1400    -0.3870    19.5760 ca         1 NSR      -0.076000
      7 C10          5.4200     0.5370    17.6210 ca         1 NSR       0.358900
      8 C13          4.3550     2.6880    20.4700 ca         1 NSR      -0.106000
      9 C15          6.1260     1.1900    21.2150 ca         1 NSR      -0.088000
     10 C17         11.3410    -0.7170    22.3120 ca         1 NSR      -0.145300
     11 O1           9.2860     0.9180    21.1330 o          1 NSR      -0.561100
     12 O           10.9460    -0.0130    24.6150 os         1 NSR      -0.345100
     13 C3          11.7860    -0.1420    23.5270 ca         1 NSR       0.163100
     14 C2          13.1200     0.2790    23.6580 ca         1 NSR      -0.135000
     15 C1          14.0120     0.1490    22.5790 ca         1 NSR      -0.061000
     16 C18         12.2410    -0.8460    21.2350 ca         1 NSR      -0.057000
     17 C           13.5710    -0.4120    21.3700 ca         1 NSR       0.090000
     18 Cl          14.6870    -0.5770    20.0200 cl         1 NSR      -0.212000
     19 N            8.0840    -0.9260    20.4900 ns         1 NSR      -0.170000
     20 C16          6.2250     0.6420    19.9150 ca         1 NSR      -0.001000
     21 C14          5.1980     2.2110    21.4860 ca         1 NSR      -0.092000
     22 C12          4.4300     2.1370    19.1810 ca         1 NSR      -0.083000
     23 C11          5.3560     1.1130    18.9050 ca         1 NSR      -0.090000
     24 C9           7.1030    -0.9120    18.2660 ca         1 NSR       0.308900
     25 H2           9.0500    -0.2900    25.4260 h1         1 NSR       0.068200
     26 H3           8.1290    -1.5260    23.4380 hc         1 NSR       0.062700
     27 H4           9.5990    -2.2970    24.0320 hc         1 NSR       0.062700
     28 H5           9.8640    -2.2040    21.7100 hc         1 NSR       0.065700
     29 H6           4.7600     0.8790    16.8240 h4         1 NSR       0.022100
     30 H7           3.6380     3.4780    20.6840 ha         1 NSR       0.118000
     31 H8           6.7500     0.8300    22.0270 ha         1 NSR       0.117000
     32 H9          13.4590     0.7090    24.5970 ha         1 NSR       0.134000
     33 H10         15.0430     0.4790    22.6810 ha         1 NSR       0.133000
     34 H11         11.9140    -1.2850    20.2950 ha         1 NSR       0.124000
     35 H12          8.0450    -1.9320    20.6040 hn         1 NSR       0.156000
     36 H13          5.1310     2.6290    22.4880 ha         1 NSR       0.115000
     37 H14          3.7650     2.5030    18.4000 ha         1 NSR       0.119000
     38 H15          7.7830    -1.7120    17.9750 h4         1 NSR       0.021100
     39 H1           9.1170     0.7430    23.9810 h1         1 NSR       0.068200
@<TRIPOS>BOND
     1     1     7 ar  
     2     1    24 ar  
     3     2     3 1   
     4     2    12 1   
     5     2    25 1   
     6     2    39 1   
     7     3     4 1   
     8     3    26 1   
     9     3    27 1   
    10     4     5 1   
    11     4    10 1   
    12     4    28 1   
    13     5    11 2   
    14     5    19 1   
    15     6    19 1   
    16     6    20 ar  
    17     6    24 ar  
    18     7    23 ar  
    19     7    29 1   
    20     8    21 ar  
    21     8    22 ar  
    22     8    30 1   
    23     9    20 ar  
    24     9    21 ar  
    25     9    31 1   
    26    10    13 ar  
    27    10    16 ar  
    28    12    13 1   
    29    13    14 ar  
    30    14    15 ar  
    31    14    32 1   
    32    15    17 ar  
    33    15    33 1   
    34    16    17 ar  
    35    16    34 1   
    36    17    18 1   
    37    19    35 1   
    38    20    23 ar  
    39    21    36 1   
    40    22    23 ar  
    41    22    37 1   
    42    24    38 1   
@<TRIPOS>SUBSTRUCTURE
     1 NSR         1 TEMP              0 ****  ****    0 ROOT
