@<TRIPOS>MOLECULE
NSR
   39    42     1     0     0
SMALL
abcg2


@<TRIPOS>ATOM
      1 N1           6.5420    -0.1340    17.2540 nb         1 NSR      -0.651000
      2 C4           9.4850     0.1400    24.2560 c6         1 NSR       0.158600
      3 C5           9.1620    -1.1610    23.5530 c6         1 NSR      -0.105400
      4 C6           9.8380    -1.2020    22.1690 c6         1 NSR      -0.083400
      5 C7           9.0630    -0.3180    21.1930 c          1 NSR       0.595100
      6 C8           7.2490    -0.3480    19.5460 ca         1 NSR      -0.076000
      7 C10          5.6460     0.7510    17.6250 ca         1 NSR       0.358900
      8 C13          4.2680     2.4440    20.6350 ca         1 NSR      -0.106000
      9 C15          6.0430     0.9440    21.3250 ca         1 NSR      -0.088000
     10 C17         11.2740    -0.7610    22.2880 ca         1 NSR      -0.145300
     11 O1           9.2400     0.8900    21.1070 o          1 NSR      -0.561100
     12 O           10.9030     0.3070    24.4390 os         1 NSR      -0.345100
     13 C3          11.7140    -0.0380    23.4020 ca         1 NSR       0.163100
     14 C2          13.0540     0.3420    23.5080 ca         1 NSR      -0.135000
     15 C1          13.9590     0.0210    22.5100 ca         1 NSR      -0.061000
     16 C18         12.1930    -1.0800    21.2880 ca         1 NSR      -0.057000
     17 C           13.5150    -0.6890    21.4000 ca         1 NSR       0.090000
     18 CL          14.6500    -1.1010    20.1260 cl         1 NSR      -0.212000
     19 N            8.1180    -0.9780    20.4730 ns         1 NSR      -0.170000
     20 C16          6.2670     0.5830    19.9760 ca         1 NSR      -0.001000
     21 C14          5.0650     1.8530    21.6410 ca         1 NSR      -0.092000
     22 C12          4.4530     2.1010    19.3210 ca         1 NSR      -0.083000
     23 C11          5.4480     1.1600    18.9650 ca         1 NSR      -0.090000
     24 C9           7.3390    -0.6670    18.2140 ca         1 NSR       0.308900
     25 H2           9.0630     0.1660    25.2590 h1         1 NSR       0.068200
     26 H3           8.0810    -1.2690    23.4610 hc         1 NSR       0.062700
     27 H4           9.5300    -2.0000    24.1480 hc         1 NSR       0.062700
     28 H5           9.8130    -2.2280    21.7980 hc         1 NSR       0.065700
     29 H6           5.0220     1.1840    16.8490 h4         1 NSR       0.022100
     30 H7           3.5060     3.1620    20.9100 ha         1 NSR       0.118000
     31 H8           6.6420     0.4980    22.1050 ha         1 NSR       0.117000
     32 H9          13.3740     0.8950    24.3820 ha         1 NSR       0.134000
     33 H10         14.9940     0.3210    22.5930 ha         1 NSR       0.133000
     34 H11         11.8610    -1.6420    20.4240 ha         1 NSR       0.124000
     35 H12          8.1250    -1.9870    20.4940 hn         1 NSR       0.156000
     36 H13          4.8990     2.1220    22.6760 ha         1 NSR       0.115000
     37 H14          3.8420     2.5360    18.5400 ha         1 NSR       0.119000
     38 H15          8.0820    -1.3850    17.8850 h4         1 NSR       0.021100
     39 H1           9.1080     0.9940    23.6890 h1         1 NSR       0.068200
@<TRIPOS>BOND
     1     1     7 ar  
     2     1    24 ar  
     3     2     3 1   
     4     2    12 1   
     5     2    25 1   
     6     2    39 1   
     7     3     4 1   
     8     3    26 1   
     9     3    27 1   
    10     4     5 1   
    11     4    10 1   
    12     4    28 1   
    13     5    11 2   
    14     5    19 1   
    15     6    19 1   
    16     6    20 ar  
    17     6    24 ar  
    18     7    23 ar  
    19     7    29 1   
    20     8    21 ar  
    21     8    22 ar  
    22     8    30 1   
    23     9    20 ar  
    24     9    21 ar  
    25     9    31 1   
    26    10    13 ar  
    27    10    16 ar  
    28    12    13 1   
    29    13    14 ar  
    30    14    15 ar  
    31    14    32 1   
    32    15    17 ar  
    33    15    33 1   
    34    16    17 ar  
    35    16    34 1   
    36    17    18 1   
    37    19    35 1   
    38    20    23 ar  
    39    21    36 1   
    40    22    23 ar  
    41    22    37 1   
    42    24    38 1   
@<TRIPOS>SUBSTRUCTURE
     1 NSR         1 TEMP              0 ****  ****    0 ROOT
