@<TRIPOS>MOLECULE
NSS
   52    54     1     0     0
SMALL
No Charge or Current Charge


@<TRIPOS>ATOM
      1 OAX         -2.7150     3.6860     0.4320 o          1 NSS      -0.527500
      2 SBE         -2.6400     3.8630     1.8850 s6         1 NSS       1.436500
      3 OAY         -2.5290     5.1970     2.4820 o          1 NSS      -0.527500
      4 NAT         -3.9150     3.0980     2.6190 ns         1 NSS      -0.564300
      5 C           -4.6370     2.0340     2.1810 c          1 NSS       0.635100
      6 O           -4.3980     1.4690     1.1270 o          1 NSS      -0.481100
      7 CA          -5.7960     1.5200     3.1270 c3         1 NSS       0.041300
      8 N           -6.0360     0.0190     2.9720 nz         1 NSS      -0.975000
      9 CB          -5.6020     1.8150     4.6410 c3         1 NSS      -0.207400
     10 CG          -6.0020     3.2420     5.0100 c          1 NSS       0.622100
     11 OD1         -5.2500     4.1880     4.8610 o          1 NSS      -0.596100
     12 ND2         -7.2420     3.4180     5.5000 nt         1 NSS      -0.576000
     13 O5          -1.4320     2.9290     2.4920 os         1 NSS      -0.561700
     14 C5          -0.7740     2.0220     1.5870 c3         1 NSS       0.181600
     15 C4           0.3590     1.2930     2.3750 c5         1 NSS       0.166300
     16 C3           1.4240     0.5830     1.4780 c5         1 NSS       0.102300
     17 O3           2.6070     0.1760     2.2030 oh         1 NSS      -0.707000
     18 C2           0.6140    -0.6660     1.0250 c5         1 NSS       0.101300
     19 O2           1.5350    -1.7110     0.6920 oh         1 NSS      -0.672000
     20 C1          -0.2700    -0.9770     2.2990 c5         1 NSS       0.277300
     21 O4          -0.1740     0.1920     3.1490 os         1 NSS      -0.438000
     22 N9          -1.6920    -1.3190     2.1580 na         1 NSS      -0.292300
     23 C9          -2.5180    -1.3690     1.0540 ca         1 NSS       0.139500
     24 N3          -2.2850    -1.1460    -0.2560 nb         1 NSS      -0.225000
     25 C10         -3.3490    -1.2550    -1.0860 ca         1 NSS       0.189900
     26 N1          -4.6170    -1.5640    -0.7350 nb         1 NSS      -0.295000
     27 C6          -4.8210    -1.7880     0.5690 ca         1 NSS       0.451900
     28 N6          -6.0990    -2.0860     0.9290 nv         1 NSS      -1.065900
     29 C7          -3.7730    -1.6970     1.5090 ca         1 NSS      -0.105600
     30 N7          -3.8160    -1.8720     2.8870 nc         1 NSS      -0.559100
     31 C8          -2.5360    -1.6470     3.2330 cd         1 NSS       0.412700
     32 HAT         -4.1560     3.5620     3.4810 hn         1 NSS       0.362500
     33 HA          -6.6980     2.0390     2.7820 hx         1 NSS       0.123700
     34 HN1         -6.8220    -0.3490     3.5280 hn         1 NSS       0.519667
     35 HN2         -5.2120    -0.5630     3.2190 hn         1 NSS       0.519667
     36 HN3         -6.2300    -0.2800     1.9970 hn         1 NSS       0.519667
     37 HB1         -4.5580     1.6350     4.9230 hc         1 NSS       0.092200
     38 HB2         -6.2520     1.1340     5.2020 hc         1 NSS       0.092200
     39 HD21        -7.8610     2.6300     5.6230 hn         1 NSS       0.339000
     40 HD22        -7.5410     4.3470     5.7570 hn         1 NSS       0.339000
     41 H5'1        -1.4800     1.2940     1.1670 h1         1 NSS       0.067700
     42 H5'2        -0.3160     2.5740     0.7550 h1         1 NSS       0.067700
     43 H4           0.8260     2.0230     3.0500 h1         1 NSS       0.113700
     44 H3           1.7020     1.2100     0.6180 h1         1 NSS       0.068700
     45 H2           3.0810     0.9920     2.4970 ho         1 NSS       0.526000
     46 H7           0.0040    -0.4010     0.1550 h1         1 NSS       0.093700
     47 H1           2.3510    -1.4400     1.1890 ho         1 NSS       0.519000
     48 H9           0.1720    -1.8270     2.8340 h2         1 NSS       0.113700
     49 H6          -3.1640    -1.0720    -2.1430 h5         1 NSS       0.052100
     50 HN61        -6.7200    -2.3210     0.1560 hn         1 NSS       0.508000
     51 HN62        -6.1860    -2.7270     1.7170 hn         1 NSS       0.508000
     52 H8          -2.1490    -1.6840     4.2450 h5         1 NSS       0.070800
@<TRIPOS>BOND
     1     1     2 2   
     2     2     3 2   
     3     2     4 1   
     4     2    13 1   
     5     4     5 1   
     6     4    32 1   
     7     5     6 2   
     8     5     7 1   
     9     7     8 1   
    10     7     9 1   
    11     7    33 1   
    12     8    34 1   
    13     8    35 1   
    14     8    36 1   
    15     9    10 1   
    16     9    37 1   
    17     9    38 1   
    18    10    11 2   
    19    10    12 1   
    20    12    39 1   
    21    12    40 1   
    22    13    14 1   
    23    14    15 1   
    24    14    41 1   
    25    14    42 1   
    26    15    16 1   
    27    15    21 1   
    28    15    43 1   
    29    16    17 1   
    30    16    18 1   
    31    16    44 1   
    32    17    45 1   
    33    18    19 1   
    34    18    20 1   
    35    18    46 1   
    36    19    47 1   
    37    20    21 1   
    38    20    22 1   
    39    20    48 1   
    40    22    23 1   
    41    22    31 1   
    42    23    24 ar  
    43    23    29 ar  
    44    24    25 ar  
    45    25    26 ar  
    46    25    49 1   
    47    26    27 ar  
    48    27    28 1   
    49    27    29 ar  
    50    28    50 1   
    51    28    51 1   
    52    29    30 1   
    53    30    31 2   
    54    31    52 1   
@<TRIPOS>SUBSTRUCTURE
     1 NSS         1 TEMP              0 ****  ****    0 ROOT
