@<TRIPOS>MOLECULE
NSS
   52    54     1     0     0
SMALL
abcg2


@<TRIPOS>ATOM
      1 OAX         -3.0720     3.4690     0.2640 o          1 NSS      -0.527500
      2 SBE         -2.8160     4.1010     1.5320 s6         1 NSS       1.436500
      3 OAY         -2.3660     5.4680     1.5780 o          1 NSS      -0.527500
      4 NAT         -4.1700     4.0370     2.4910 ns         1 NSS      -0.564300
      5 C           -4.9030     2.8980     2.6940 c          1 NSS       0.635100
      6 O           -4.6810     1.8460     2.1560 o          1 NSS      -0.481100
      7 CA          -6.1330     3.0830     3.5860 c3         1 NSS       0.041300
      8 N           -7.3240     3.0070     2.6980 nz         1 NSS      -0.975000
      9 CB          -6.2220     1.9900     4.6330 c3         1 NSS      -0.207400
     10 CG          -5.0030     2.0380     5.5310 c          1 NSS       0.622100
     11 OD1         -4.0590     2.7630     5.2530 o          1 NSS      -0.596100
     12 ND2         -5.0520     1.2450     6.6010 nt         1 NSS      -0.576000
     13 O5          -1.8710     3.1820     2.4090 os         1 NSS      -0.561700
     14 C5          -0.6440     2.6960     1.8280 c3         1 NSS       0.181600
     15 C4          -0.1950     1.5240     2.6760 c5         1 NSS       0.166300
     16 C3           1.0330     0.8550     2.0650 c5         1 NSS       0.102300
     17 O3           1.7760     0.2420     3.0880 oh         1 NSS      -0.707000
     18 C2           0.3720    -0.1970     1.1650 c5         1 NSS       0.101300
     19 O2           1.1790    -1.2530     0.7590 oh         1 NSS      -0.672000
     20 C1          -0.8290    -0.6150     2.0250 c5         1 NSS       0.277300
     21 O4          -1.2140     0.5300     2.7310 os         1 NSS      -0.438000
     22 N9          -1.9510    -1.1030     1.2640 na         1 NSS      -0.292300
     23 C9          -2.3490    -2.4060     1.1630 ca         1 NSS       0.139500
     24 N3          -1.8270    -3.4770     1.7560 nb         1 NSS      -0.225000
     25 C10         -2.4820    -4.5800     1.4360 ca         1 NSS       0.189900
     26 N1          -3.5330    -4.7140     0.6310 nb         1 NSS      -0.295000
     27 C6          -4.0440    -3.6280     0.0410 ca         1 NSS       0.451900
     28 N6          -5.0980    -3.7580    -0.7660 nv         1 NSS      -1.065900
     29 C7          -3.4370    -2.3860     0.3050 ca         1 NSS      -0.105600
     30 N7          -3.7080    -1.1080    -0.1090 nc         1 NSS      -0.559100
     31 C8          -2.8080    -0.3780     0.4790 cd         1 NSS       0.412700
     32 HAT         -4.3380     4.8580     3.0610 hn         1 NSS       0.362500
     33 HA          -6.1630     4.0700     4.0470 hx         1 NSS       0.123700
     34 HN1         -8.1900     3.0780     3.2360 hn         1 NSS       0.519667
     35 HN2         -7.3700     2.1270     2.1790 hn         1 NSS       0.519667
     36 HN3         -7.3500     3.7660     2.0150 hn         1 NSS       0.519667
     37 HB1         -6.2850     1.0060     4.1590 hc         1 NSS       0.092200
     38 HB2         -7.1340     2.1140     5.2230 hc         1 NSS       0.092200
     39 HD21        -5.8420     0.6530     6.7920 hn         1 NSS       0.339000
     40 HD22        -4.2630     1.1820     7.2250 hn         1 NSS       0.339000
     41 H5'1        -0.8050     2.4000     0.7890 h1         1 NSS       0.067700
     42 H5'2         0.1080     3.4860     1.8530 h1         1 NSS       0.067700
     43 H4           0.0150     1.8710     3.6910 h1         1 NSS       0.113700
     44 H3           1.6400     1.5610     1.4890 h1         1 NSS       0.068700
     45 H2           2.6800     0.1150     2.7840 ho         1 NSS       0.526000
     46 H7           0.0130     0.2880     0.2510 h1         1 NSS       0.093700
     47 H1           1.5630    -1.6710     1.5390 ho         1 NSS       0.519000
     48 H9          -0.5500    -1.4290     2.7050 h2         1 NSS       0.113700
     49 H6          -2.1190    -5.4980     1.8850 h5         1 NSS       0.052100
     50 HN61        -5.5190    -4.6600    -0.9100 hn         1 NSS       0.508000
     51 HN62        -5.5060    -2.9610    -1.2220 hn         1 NSS       0.508000
     52 H8          -2.7380     0.6950     0.3950 h5         1 NSS       0.070800
@<TRIPOS>BOND
     1     1     2 2   
     2     2     3 2   
     3     2     4 1   
     4     2    13 1   
     5     4     5 1   
     6     4    32 1   
     7     5     6 2   
     8     5     7 1   
     9     7     8 1   
    10     7     9 1   
    11     7    33 1   
    12     8    34 1   
    13     8    35 1   
    14     8    36 1   
    15     9    10 1   
    16     9    37 1   
    17     9    38 1   
    18    10    11 2   
    19    10    12 1   
    20    12    39 1   
    21    12    40 1   
    22    13    14 1   
    23    14    15 1   
    24    14    41 1   
    25    14    42 1   
    26    15    16 1   
    27    15    21 1   
    28    15    43 1   
    29    16    17 1   
    30    16    18 1   
    31    16    44 1   
    32    17    45 1   
    33    18    19 1   
    34    18    20 1   
    35    18    46 1   
    36    19    47 1   
    37    20    21 1   
    38    20    22 1   
    39    20    48 1   
    40    22    23 1   
    41    22    31 1   
    42    23    24 ar  
    43    23    29 ar  
    44    24    25 ar  
    45    25    26 ar  
    46    25    49 1   
    47    26    27 ar  
    48    27    28 1   
    49    27    29 ar  
    50    28    50 1   
    51    28    51 1   
    52    29    30 1   
    53    30    31 2   
    54    31    52 1   
@<TRIPOS>SUBSTRUCTURE
     1 NSS         1 TEMP              0 ****  ****    0 ROOT
