@<TRIPOS>MOLECULE
NST
   28    29     1     0     0
SMALL
No Charge or Current Charge


@<TRIPOS>ATOM
      1 N1          -0.0710     1.4310     1.2590 nu         1 NST      -0.868100
      2 C2           1.1130     1.2510     0.5460 ca         1 NST       0.260000
      3 C3           1.6250     2.2580    -0.2950 ca         1 NST      -0.057000
      4 C4           1.8300     0.0470     0.6860 ca         1 NST      -0.067000
      5 C5           2.8210     2.0560    -1.0040 ca         1 NST      -0.124000
      6 C6           3.0370    -0.1710    -0.0240 ca         1 NST      -0.171200
      7 C7           3.5240     0.8470    -0.8760 ca         1 NST      -0.073000
      8 N2           3.7860    -1.4620     0.1270 no         1 NST       0.694200
      9 S13         -1.5660     1.8130     0.6210 sy         1 NST       1.173600
     10 C15         -1.8120     0.4560    -0.5450 cc         1 NST      -0.356500
     11 O16         -1.3930     3.0790    -0.0970 o          1 NST      -0.556000
     12 O17         -2.4750     1.6670     1.7590 o          1 NST      -0.556000
     13 C18         -1.8260    -0.9150    -0.2460 cd         1 NST      -0.150600
     14 C19         -2.0230     0.6740    -1.9370 cc         1 NST      -0.061000
     15 S20         -2.1830    -1.9000    -1.6770 ss         1 NST       0.294000
     16 C21         -1.5440    -1.6030     1.0580 c          1 NST       0.736600
     17 C22         -2.2110    -0.4530    -2.6860 cd         1 NST      -0.323000
     18 O23         -1.6520    -2.8200     1.0950 o          1 NST      -0.688000
     19 O24         -1.1610    -0.9580     2.0240 o          1 NST      -0.688000
     20 O1           4.8360    -1.6090    -0.5120 o          1 NST      -0.407500
     21 O2           3.3200    -2.3240     0.8840 o          1 NST      -0.407500
     22 HN1         -0.3680     0.5980     1.7760 hn         1 NST       0.551000
     23 H3           1.1060     3.2060    -0.3950 ha         1 NST       0.144000
     24 H4           1.4430    -0.7210     1.3500 ha         1 NST       0.181000
     25 H5           3.2050     2.8400    -1.6530 ha         1 NST       0.117000
     26 H7           4.4490     0.7130    -1.4360 ha         1 NST       0.138000
     27 H19         -2.0310     1.6750    -2.3650 ha         1 NST       0.136000
     28 H22         -2.3850    -0.5320    -3.7510 h4         1 NST       0.131000
@<TRIPOS>BOND
     1     1     2 1   
     2     1     9 1   
     3     1    22 1   
     4     2     3 ar  
     5     2     4 ar  
     6     3     5 ar  
     7     3    23 1   
     8     4     6 ar  
     9     4    24 1   
    10     5     7 ar  
    11     5    25 1   
    12     6     7 ar  
    13     6     8 1   
    14     7    26 1   
    15     8    20 1   
    16     8    21 1   
    17     9    10 1   
    18     9    11 2   
    19     9    12 2   
    20    10    13 2   
    21    10    14 1   
    22    13    15 1   
    23    13    16 1   
    24    14    17 2   
    25    14    27 1   
    26    15    17 1   
    27    16    18 1   
    28    16    19 1   
    29    17    28 1   
@<TRIPOS>SUBSTRUCTURE
     1 NST         1 TEMP              0 ****  ****    0 ROOT
