@<TRIPOS>MOLECULE
NST
   28    29     1     0     0
SMALL
abcg2


@<TRIPOS>ATOM
      1 N1          -0.0610     1.4780     1.2960 nu         1 NST      -0.868100
      2 C2           1.1450     1.3210     0.5750 ca         1 NST       0.260000
      3 C3           1.7990     2.4300     0.0440 ca         1 NST      -0.057000
      4 C4           1.6960     0.0560     0.4290 ca         1 NST      -0.067000
      5 C5           2.9930     2.2680    -0.6400 ca         1 NST      -0.124000
      6 C6           2.9010    -0.0750    -0.2430 ca         1 NST      -0.171200
      7 C7           3.5610     1.0130    -0.7910 ca         1 NST      -0.073000
      8 N2           3.4820    -1.4040    -0.3810 no         1 NST       0.694200
      9 S13         -1.4450     1.7640     0.4160 sy         1 NST       1.173600
     10 C15         -1.7040     0.3170    -0.5580 cc         1 NST      -0.356500
     11 O16         -1.1750     2.8540    -0.5060 o          1 NST      -0.556000
     12 O17         -2.5160     1.8970     1.3840 o          1 NST      -0.556000
     13 C18         -1.8300    -0.9580    -0.0630 cd         1 NST      -0.150600
     14 C19         -1.8480     0.4050    -1.9680 cc         1 NST      -0.061000
     15 S20         -2.1420    -2.0500    -1.3420 ss         1 NST       0.294000
     16 C21         -1.7220    -1.5510     1.3240 c          1 NST       0.736600
     17 C22         -2.0870    -0.8160    -2.5210 cd         1 NST      -0.323000
     18 O23         -2.1270    -2.7160     1.4200 o          1 NST      -0.688000
     19 O24         -1.2230    -0.8370     2.2200 o          1 NST      -0.688000
     20 O1           4.5290    -1.5060    -0.9750 o          1 NST      -0.407500
     21 O2           2.8870    -2.3360     0.1060 o          1 NST      -0.407500
     22 HN1         -0.2810     0.6650     1.8960 hn         1 NST       0.551000
     23 H3           1.3860     3.4190     0.1860 ha         1 NST       0.144000
     24 H4           1.1920    -0.8030     0.8480 ha         1 NST       0.181000
     25 H5           3.4970     3.1320    -1.0490 ha         1 NST       0.117000
     26 H7           4.4970     0.8980    -1.3180 ha         1 NST       0.138000
     27 H19         -1.7800     1.3200    -2.5370 ha         1 NST       0.136000
     28 H22         -2.2310    -1.0410    -3.5660 h4         1 NST       0.131000
@<TRIPOS>BOND
     1     1     2 1   
     2     1     9 1   
     3     1    22 1   
     4     2     3 ar  
     5     2     4 ar  
     6     3     5 ar  
     7     3    23 1   
     8     4     6 ar  
     9     4    24 1   
    10     5     7 ar  
    11     5    25 1   
    12     6     7 ar  
    13     6     8 1   
    14     7    26 1   
    15     8    20 1   
    16     8    21 1   
    17     9    10 1   
    18     9    11 2   
    19     9    12 2   
    20    10    13 2   
    21    10    14 1   
    22    13    15 1   
    23    13    16 1   
    24    14    17 2   
    25    14    27 1   
    26    15    17 1   
    27    16    18 1   
    28    16    19 1   
    29    17    28 1   
@<TRIPOS>SUBSTRUCTURE
     1 NST         1 TEMP              0 ****  ****    0 ROOT
