@<TRIPOS>MOLECULE
NSU
   40    41     1     0     0
SMALL
abcg2


@<TRIPOS>ATOM
      1 C10         35.7740    13.8260    19.2120 c5         1 NSU       0.142600
      2 C02         33.4970    15.8710    17.6130 c          1 NSU       0.717000
      3 C03         34.4440    16.4870    18.6730 c3         1 NSU      -0.063000
      4 C05         35.4340    14.8590    20.2920 c5         1 NSU       0.096700
      5 C06         36.8010    15.4580    20.6140 c5         1 NSU       0.091500
      6 C08         37.6490    14.2000    20.5410 c5         1 NSU       0.158600
      7 O09         37.1120    13.4310    19.4770 os         1 NSU      -0.473000
      8 C12         33.2590    15.3310    22.0870 c3         1 NSU       0.000000
      9 C14         30.9010    15.2790    22.6370 c          1 NSU       0.622000
     10 C16         29.9620    17.0240    24.1230 c          1 NSU       0.597200
     11 C17         31.2960    17.5750    24.2580 cc         1 NSU      -0.291400
     12 C18         32.2980    16.9580    23.6080 cd         1 NSU       0.021600
     13 C19         31.4940    18.7920    25.0990 c3         1 NSU      -0.009900
     14 N04         34.4060    15.8190    19.9590 n          1 NSU      -0.358800
     15 N07         36.8200    16.0860    21.9170 n8         1 NSU      -0.998200
     16 N13         32.1410    15.8290    22.8510 n          1 NSU      -0.281000
     17 N15         29.8850    15.9010    23.3160 ns         1 NSU      -0.467500
     18 O01         33.3690    16.5500    16.5780 o          1 NSU      -0.718500
     19 H102        35.7100    14.2420    18.2030 h1         1 NSU       0.080700
     20 H101        35.1060    12.9630    19.2570 h1         1 NSU       0.080700
     21 H031        35.4680    16.4520    18.2930 h1         1 NSU       0.035700
     22 H032        34.2130    17.5440    18.8020 h1         1 NSU       0.035700
     23 H051        35.1260    14.3090    21.1810 h1         1 NSU       0.054700
     24 H061        37.0990    16.1340    19.7980 h1         1 NSU       0.046700
     25 H082        37.5840    13.6600    21.4950 h1         1 NSU       0.038200
     26 H081        38.7030    14.4020    20.3380 h1         1 NSU       0.038200
     27 H121        33.1470    14.2570    21.9420 h1         1 NSU       0.084200
     28 H122        34.1670    15.4800    22.6730 h1         1 NSU       0.084200
     29 H181        33.3150    17.3260    23.6690 h4         1 NSU       0.199000
     30 H192        31.1890    18.6170    26.1310 hc         1 NSU       0.037700
     31 H193        32.5410    19.0920    25.1070 hc         1 NSU       0.037700
     32 H191        30.9070    19.6330    24.7270 hc         1 NSU       0.037700
     33 H071        37.7540    16.4190    22.1230 hn         1 NSU       0.394000
     34 H2          36.2410    16.9180    21.8920 hn         1 NSU       0.394000
     35 H151        28.9650    15.4960    23.1870 hn         1 NSU       0.336500
     36 O02         32.9830    14.7700    17.8750 o          1 NSU      -0.718500
     37 C11         33.3390    16.0590    20.7420 c          1 NSU       0.591100
     38 O20         28.9640    17.4760    24.6520 o          1 NSU      -0.557000
     39 O22         32.4620    16.8520    20.4390 o          1 NSU      -0.585100
     40 O21         30.7130    14.3130    21.9260 o          1 NSU      -0.532000
@<TRIPOS>BOND
     1     1     4 1   
     2     1     7 1   
     3     1    19 1   
     4     1    20 1   
     5     2     3 1   
     6     2    18 1   
     7     2    36 1   
     8     3    14 1   
     9     3    21 1   
    10     3    22 1   
    11     4     5 1   
    12     4    14 1   
    13     4    23 1   
    14     5     6 1   
    15     5    15 1   
    16     5    24 1   
    17     6     7 1   
    18     6    25 1   
    19     6    26 1   
    20     8    16 1   
    21     8    27 1   
    22     8    28 1   
    23     8    37 1   
    24     9    16 1   
    25     9    17 1   
    26     9    40 2   
    27    10    11 1   
    28    10    17 1   
    29    10    38 2   
    30    11    12 2   
    31    11    13 1   
    32    12    16 1   
    33    12    29 1   
    34    13    30 1   
    35    13    31 1   
    36    13    32 1   
    37    14    37 1   
    38    15    33 1   
    39    15    34 1   
    40    17    35 1   
    41    37    39 2   
@<TRIPOS>SUBSTRUCTURE
     1 NSU         1 TEMP              0 ****  ****    0 ROOT
