@<TRIPOS>MOLECULE
NSU
   40    41     1     0     0
SMALL
No Charge or Current Charge


@<TRIPOS>ATOM
      1 C10         35.9590    13.6990    19.2160 c5         1 NSU       0.142600
      2 C02         33.5430    15.6660    17.3280 c          1 NSU       0.717000
      3 C03         34.5190    16.2370    18.3900 c3         1 NSU      -0.063000
      4 C05         35.4240    14.6580    20.3160 c5         1 NSU       0.096700
      5 C06         36.7410    15.4380    20.6050 c5         1 NSU       0.091500
      6 C08         37.7430    14.2320    20.6590 c5         1 NSU       0.158600
      7 O09         37.1930    13.2040    19.7900 os         1 NSU      -0.473000
      8 C12         33.1890    15.4920    22.0230 c3         1 NSU       0.000000
      9 C14         30.7550    15.5760    22.5770 c          1 NSU       0.622000
     10 C16         29.8760    17.1000    24.2740 c          1 NSU       0.597200
     11 C17         31.2580    17.5790    24.5000 cc         1 NSU      -0.291400
     12 C18         32.2970    17.0440    23.7690 cd         1 NSU       0.021600
     13 C19         31.4260    18.6560    25.5470 c3         1 NSU      -0.009900
     14 N04         34.4080    15.6260    19.7620 n          1 NSU      -0.358800
     15 N07         36.7110    16.2910    21.8210 n8         1 NSU      -0.998200
     16 N13         32.0610    16.0520    22.8210 n          1 NSU      -0.281000
     17 N15         29.7690    16.1360    23.3240 ns         1 NSU      -0.467500
     18 O01         32.9570    16.4550    16.5990 o          1 NSU      -0.718500
     19 H102        36.1990    14.1970    18.2690 h1         1 NSU       0.080700
     20 H101        35.2740    12.8660    19.0090 h1         1 NSU       0.080700
     21 H031        35.5380    16.1260    18.0030 h1         1 NSU       0.035700
     22 H032        34.3460    17.3180    18.4660 h1         1 NSU       0.035700
     23 H051        35.0810    14.0790    21.1820 h1         1 NSU       0.054700
     24 H061        37.0110    16.0890    19.7610 h1         1 NSU       0.046700
     25 H082        37.8220    13.8160    21.6730 h1         1 NSU       0.038200
     26 H081        38.7480    14.5110    20.3170 h1         1 NSU       0.038200
     27 H121        33.0390    14.4130    21.8970 h1         1 NSU       0.084200
     28 H122        34.1260    15.6300    22.5750 h1         1 NSU       0.084200
     29 H181        33.3390    17.3400    23.8670 h4         1 NSU       0.199000
     30 H192        31.0820    18.3070    26.5290 hc         1 NSU       0.037700
     31 H193        32.4770    18.9510    25.6500 hc         1 NSU       0.037700
     32 H191        30.8520    19.5530    25.2850 hc         1 NSU       0.037700
     33 H071        37.6610    16.6240    22.0270 hn         1 NSU       0.394000
     34 H2          36.2010    17.1570    21.6120 hn         1 NSU       0.394000
     35 H151        28.8380    15.7930    23.1490 hn         1 NSU       0.336500
     36 O02         33.4060    14.4530    17.2540 o          1 NSU      -0.718500
     37 C11         33.3700    16.1110    20.6130 c          1 NSU       0.591100
     38 O20         28.8900    17.5080    24.8670 o          1 NSU      -0.557000
     39 O22         32.6090    16.9950    20.2270 o          1 NSU      -0.585100
     40 O21         30.5010    14.7100    21.7560 o          1 NSU      -0.532000
@<TRIPOS>BOND
     1     1     4 1   
     2     1     7 1   
     3     1    19 1   
     4     1    20 1   
     5     2     3 1   
     6     2    18 1   
     7     2    36 1   
     8     3    14 1   
     9     3    21 1   
    10     3    22 1   
    11     4     5 1   
    12     4    14 1   
    13     4    23 1   
    14     5     6 1   
    15     5    15 1   
    16     5    24 1   
    17     6     7 1   
    18     6    25 1   
    19     6    26 1   
    20     8    16 1   
    21     8    27 1   
    22     8    28 1   
    23     8    37 1   
    24     9    16 1   
    25     9    17 1   
    26     9    40 2   
    27    10    11 1   
    28    10    17 1   
    29    10    38 2   
    30    11    12 2   
    31    11    13 1   
    32    12    16 1   
    33    12    29 1   
    34    13    30 1   
    35    13    31 1   
    36    13    32 1   
    37    14    37 1   
    38    15    33 1   
    39    15    34 1   
    40    17    35 1   
    41    37    39 2   
@<TRIPOS>SUBSTRUCTURE
     1 NSU         1 TEMP              0 ****  ****    0 ROOT
