@<TRIPOS>MOLECULE
NSV
   28    29     1     0     0
SMALL
abcg2


@<TRIPOS>ATOM
      1 N1           3.0300    -0.6580    -1.0750 nc         1 NSV      -0.644000
      2 N3          -3.8940    -0.6890     0.8220 n7         1 NSV      -0.841400
      3 C4           0.9160     0.2620    -0.8810 cd         1 NSV      -0.233300
      4 C5          -0.4440     0.7700    -1.2180 c3         1 NSV       0.244100
      5 C6          -2.6670     1.1110    -0.3830 c6         1 NSV       0.126300
      6 C7          -3.6420     0.7400     0.7260 c6         1 NSV       0.148300
      7 C8          -2.6420    -1.4230     0.8830 c6         1 NSV       0.148300
      8 C1           4.1530    -0.5980     1.1210 c3         1 NSV      -0.130400
      9 C2           3.0250    -0.3530     0.1820 cd         1 NSV       0.428700
     10 C3           1.8490    -0.3190    -1.6760 cc         1 NSV       0.271900
     11 C9          -1.6640    -1.0520    -0.2230 c6         1 NSV       0.126300
     12 N2          -1.4200     0.3810    -0.2230 n3         1 NSV      -0.718600
     13 S1           1.5480     0.3800     0.7190 ss         1 NSV      -0.014400
     14 H6          -0.4220     1.8630    -1.2600 h1         1 NSV       0.046200
     15 H7          -0.7020     0.4240    -2.2330 h1         1 NSV       0.046200
     16 H8          -3.1330     0.9040    -1.3630 h1         1 NSV       0.036450
     17 H9          -2.4590     2.1840    -0.3480 h1         1 NSV       0.036450
     18 H10         -4.5880     1.2630     0.5730 h1         1 NSV       0.060200
     19 H11         -3.2350     1.0810     1.6830 h1         1 NSV       0.060200
     20 H12         -2.1720    -1.2240     1.8520 h1         1 NSV       0.060200
     21 H13         -2.8510    -2.4930     0.8410 h1         1 NSV       0.060200
     22 H14          3.8400    -1.2050     1.9710 hc         1 NSV       0.057033
     23 H15          4.9530    -1.1200     0.6010 hc         1 NSV       0.057033
     24 H16          4.5510     0.3370     1.5170 hc         1 NSV       0.057033
     25 H18          1.7050    -0.5230    -2.7290 h4         1 NSV       0.038100
     26 H20         -0.7210    -1.5810    -0.0680 h1         1 NSV       0.036450
     27 H21         -2.0650    -1.3860    -1.1970 h1         1 NSV       0.036450
     28 H3          -4.4110    -0.9880     0.0020 hn         1 NSV       0.400000
@<TRIPOS>BOND
     1     1     9 2   
     2     1    10 1   
     3     2     6 1   
     4     2     7 1   
     5     2    28 1   
     6     3     4 1   
     7     3    10 2   
     8     3    13 1   
     9     4    12 1   
    10     4    14 1   
    11     4    15 1   
    12     5     6 1   
    13     5    12 1   
    14     5    16 1   
    15     5    17 1   
    16     6    18 1   
    17     6    19 1   
    18     7    11 1   
    19     7    20 1   
    20     7    21 1   
    21     8     9 1   
    22     8    22 1   
    23     8    23 1   
    24     8    24 1   
    25     9    13 1   
    26    10    25 1   
    27    11    12 1   
    28    11    26 1   
    29    11    27 1   
@<TRIPOS>SUBSTRUCTURE
     1 NSV         1 TEMP              0 ****  ****    0 ROOT
