@<TRIPOS>MOLECULE
NSV
   28    29     1     0     0
SMALL
No Charge or Current Charge


@<TRIPOS>ATOM
      1 N1           2.8810    -1.0560    -0.9180 nc         1 NSV      -0.644000
      2 N3          -4.0510    -0.7170     0.6370 n7         1 NSV      -0.841400
      3 C4           0.9850     0.2840    -0.7540 cd         1 NSV      -0.233300
      4 C5          -0.3580     0.8710    -1.0900 c3         1 NSV       0.244100
      5 C6          -2.7040     1.1810    -0.3720 c6         1 NSV       0.126300
      6 C7          -3.8140     0.7560     0.6430 c6         1 NSV       0.148300
      7 C8          -2.7740    -1.4600     0.8520 c6         1 NSV       0.148300
      8 C1           4.3950    -0.5220     0.9520 c3         1 NSV      -0.130400
      9 C2           3.1260    -0.3400     0.1710 cd         1 NSV       0.428700
     10 C3           1.6610    -0.6960    -1.4380 cc         1 NSV       0.271900
     11 C9          -1.6620    -1.0360    -0.1610 c6         1 NSV       0.126300
     12 N2          -1.4230     0.4420    -0.1560 n3         1 NSV      -0.718600
     13 S1           1.8990     0.8300     0.6420 ss         1 NSV      -0.014400
     14 H6          -0.2610     1.9660    -1.0680 h1         1 NSV       0.046200
     15 H7          -0.6210     0.5930    -2.1200 h1         1 NSV       0.046200
     16 H8          -3.0740     1.0030    -1.3930 h1         1 NSV       0.036450
     17 H9          -2.5390     2.2640    -0.2770 h1         1 NSV       0.036450
     18 H10         -4.7490     1.2850     0.4050 h1         1 NSV       0.060200
     19 H11         -3.5080     1.0720     1.6520 h1         1 NSV       0.060200
     20 H12         -2.4100    -1.2700     1.8740 h1         1 NSV       0.060200
     21 H13         -2.9530    -2.5420     0.7660 h1         1 NSV       0.060200
     22 H14          4.4930    -1.5560     1.3020 hc         1 NSV       0.057033
     23 H15          5.2700    -0.2860     0.3360 hc         1 NSV       0.057033
     24 H16          4.4150     0.1340     1.8310 hc         1 NSV       0.057033
     25 H18          1.3190    -1.1980    -2.3330 h4         1 NSV       0.038100
     26 H20         -0.7400    -1.5770     0.0950 h1         1 NSV       0.036450
     27 H21         -1.9590    -1.3660    -1.1680 h1         1 NSV       0.036450
     28 H3          -4.4060    -0.9720    -0.2920 hn         1 NSV       0.400000
@<TRIPOS>BOND
     1     1     9 2   
     2     1    10 1   
     3     2     6 1   
     4     2     7 1   
     5     2    28 1   
     6     3     4 1   
     7     3    10 2   
     8     3    13 1   
     9     4    12 1   
    10     4    14 1   
    11     4    15 1   
    12     5     6 1   
    13     5    12 1   
    14     5    16 1   
    15     5    17 1   
    16     6    18 1   
    17     6    19 1   
    18     7    11 1   
    19     7    20 1   
    20     7    21 1   
    21     8     9 1   
    22     8    22 1   
    23     8    23 1   
    24     8    24 1   
    25     9    13 1   
    26    10    25 1   
    27    11    12 1   
    28    11    26 1   
    29    11    27 1   
@<TRIPOS>SUBSTRUCTURE
     1 NSV         1 TEMP              0 ****  ****    0 ROOT
