@<TRIPOS>MOLECULE
NSW
   53    57     1     0     0
SMALL
No Charge or Current Charge


@<TRIPOS>ATOM
      1 C10         -9.8040     5.6530   -24.2960 ca         1 NSW      -0.175500
      2 N12        -11.2370     1.3670   -23.5500 na         1 NSW      -0.204300
      3 C13        -11.9120     0.1730   -23.7800 cc         1 NSW       0.042000
      4 C17         -9.0070    -3.1240   -25.1580 ca         1 NSW      -0.090500
      5 C20         -9.6020    -3.7210   -27.8380 ca         1 NSW      -0.102500
      6 C21        -10.0340    -2.5070   -27.2750 ca         1 NSW      -0.090500
      7 C24        -14.3920    -3.2780   -24.2210 ca         1 NSW      -0.234500
      8 C26        -16.4360    -4.5490   -23.7370 ca         1 NSW      -0.182500
      9 C02        -13.3160     1.3370   -22.4860 c          1 NSW       0.548800
     10 C04        -11.8460     3.3620   -21.9980 c3         1 NSW       0.183300
     11 C05        -10.6750     4.1210   -22.6120 ca         1 NSW      -0.218300
     12 C06         -9.3780     3.9790   -22.0820 ca         1 NSW      -0.045500
     13 C07         -8.3000     4.6730   -22.6580 ca         1 NSW      -0.175500
     14 C08         -8.5150     5.5110   -23.7650 ca         1 NSW       0.185100
     15 C11        -10.8850     4.9610   -23.7230 ca         1 NSW      -0.045500
     16 C14        -11.5480    -0.9490   -24.5930 cc         1 NSW       0.373300
     17 C16         -9.7390    -2.2020   -25.9320 ca         1 NSW      -0.102300
     18 C18         -8.5750    -4.3370   -25.7210 ca         1 NSW      -0.102500
     19 C19         -8.8720    -4.6360   -27.0620 ca         1 NSW      -0.085000
     20 C23        -13.5460    -2.0640   -24.0610 cd         1 NSW       0.424500
     21 C25        -15.6480    -3.3950   -23.5760 ca         1 NSW      -0.022500
     22 C27        -15.9870    -5.6040   -24.5420 ca         1 NSW       0.193100
     23 C29        -14.7500    -5.5070   -25.1860 ca         1 NSW      -0.182500
     24 C30        -13.9560    -4.3580   -25.0310 ca         1 NSW      -0.022500
     25 C31        -13.9110    -0.9700   -23.2800 cc         1 NSW      -0.111000
     26 N03        -12.1840     2.1380   -22.7450 n          1 NSW      -0.295100
     27 N22        -12.3150    -2.0350   -24.7500 nd         1 NSW      -0.573000
     28 N32        -13.1060     0.1470   -23.1630 n          1 NSW       0.061200
     29 O09         -7.4760     6.1890   -24.3310 oh         1 NSW      -0.511100
     30 O28        -16.7440    -6.7250   -24.7030 oh         1 NSW      -0.510100
     31 H1          -9.9680     6.3010   -25.1530 ha         1 NSW       0.140500
     32 H2         -10.4970     1.8500   -24.0590 hn         1 NSW       0.435000
     33 H3          -9.4490    -0.5280   -24.6170 hc         1 NSW       0.067700
     34 H4         -10.2790    -0.1180   -26.0960 hc         1 NSW       0.067700
     35 H6          -9.8340    -3.9510   -28.8760 ha         1 NSW       0.126000
     36 H7         -10.6020    -1.8070   -27.8830 ha         1 NSW       0.110000
     37 H8         -17.3960    -4.6130   -23.2310 ha         1 NSW       0.139000
     38 H9         -11.6110     3.0880   -20.9600 h1         1 NSW       0.096200
     39 H10        -12.7290     4.0140   -21.9690 h1         1 NSW       0.096200
     40 H11         -9.2020     3.3290   -21.2260 ha         1 NSW       0.118500
     41 H12         -7.3030     4.5550   -22.2400 ha         1 NSW       0.140500
     42 H13        -11.8820     5.0750   -24.1450 ha         1 NSW       0.118500
     43 H14         -8.0110    -5.0460   -25.1180 ha         1 NSW       0.126000
     44 H15         -8.5370    -5.5760   -27.4970 ha         1 NSW       0.128000
     45 H16        -16.0380    -2.6030   -22.9420 ha         1 NSW       0.124500
     46 H17        -14.4010    -6.3250   -25.8110 ha         1 NSW       0.139000
     47 H18        -13.0000    -4.3230   -25.5500 ha         1 NSW       0.124500
     48 H19        -14.8230    -0.8630   -22.7130 h4         1 NSW       0.202000
     49 H20         -6.6590     5.9760   -23.8330 ho         1 NSW       0.481000
     50 H21        -17.5690    -6.6190   -24.1830 ho         1 NSW       0.481000
     51 O01        -14.2750     1.6330   -21.7870 o          1 NSW      -0.431000
     52 C15        -10.2150    -0.8850   -25.3150 c3         1 NSW      -0.073400
     53 H5          -8.7760    -2.9030   -24.1180 ha         1 NSW       0.110000
@<TRIPOS>BOND
     1     1    14 ar  
     2     1    15 ar  
     3     1    31 1   
     4     2     3 2   
     5     2    26 1   
     6     2    32 1   
     7     3    16 1   
     8     3    28 1   
     9     4    17 ar  
    10     4    18 ar  
    11     4    53 1   
    12     5     6 ar  
    13     5    19 ar  
    14     5    35 1   
    15     6    17 ar  
    16     6    36 1   
    17     7    20 1   
    18     7    21 ar  
    19     7    24 ar  
    20     8    21 ar  
    21     8    22 ar  
    22     8    37 1   
    23     9    26 1   
    24     9    28 1   
    25     9    51 2   
    26    10    11 1   
    27    10    26 1   
    28    10    38 1   
    29    10    39 1   
    30    11    12 ar  
    31    11    15 ar  
    32    12    13 ar  
    33    12    40 1   
    34    13    14 ar  
    35    13    41 1   
    36    14    29 1   
    37    15    42 1   
    38    16    27 2   
    39    16    52 1   
    40    17    52 1   
    41    18    19 ar  
    42    18    43 1   
    43    19    44 1   
    44    20    25 2   
    45    20    27 1   
    46    21    45 1   
    47    22    23 ar  
    48    22    30 1   
    49    23    24 ar  
    50    23    46 1   
    51    24    47 1   
    52    25    28 1   
    53    25    48 1   
    54    29    49 1   
    55    30    50 1   
    56    33    52 1   
    57    34    52 1   
@<TRIPOS>SUBSTRUCTURE
     1 NSW         1 TEMP              0 ****  ****    0 ROOT
