@<TRIPOS>MOLECULE
NSW
   53    57     1     0     0
SMALL
abcg2


@<TRIPOS>ATOM
      1 C10        -10.9420     5.5160   -24.3470 ca         1 NSW      -0.175500
      2 N12        -10.7780     0.9510   -22.8590 na         1 NSW      -0.204300
      3 C13        -11.4690    -0.0640   -23.3350 cc         1 NSW       0.042000
      4 C17         -9.1620    -3.7930   -24.8070 ca         1 NSW      -0.090500
      5 C20         -9.5010    -3.7290   -27.5570 ca         1 NSW      -0.102500
      6 C21         -9.6710    -2.5730   -26.8080 ca         1 NSW      -0.090500
      7 C24        -14.2850    -2.9510   -24.3930 ca         1 NSW      -0.234500
      8 C26        -16.3510    -4.1690   -24.0750 ca         1 NSW      -0.182500
      9 C02        -12.8740     1.2680   -22.1650 c          1 NSW       0.548800
     10 C04        -11.1400     2.9870   -21.5290 c3         1 NSW       0.183300
     11 C05        -10.5900     3.9550   -22.5350 ca         1 NSW      -0.218300
     12 C06         -9.2240     4.1930   -22.6200 ca         1 NSW      -0.045500
     13 C07         -8.7100     5.0810   -23.5530 ca         1 NSW      -0.175500
     14 C08         -9.5670     5.7490   -24.4220 ca         1 NSW       0.185100
     15 C11        -11.4400     4.6290   -23.4110 ca         1 NSW      -0.045500
     16 C14        -11.1230    -1.1880   -24.1390 cc         1 NSW       0.373300
     17 C16         -9.5030    -2.5960   -25.4270 ca         1 NSW      -0.102300
     18 C18         -8.9910    -4.9500   -25.5530 ca         1 NSW      -0.102500
     19 C19         -9.1610    -4.9210   -26.9310 ca         1 NSW      -0.085000
     20 C23        -13.3420    -1.8990   -23.9950 cd         1 NSW       0.424500
     21 C25        -15.4590    -3.1900   -23.6790 ca         1 NSW      -0.022500
     22 C27        -16.0850    -4.9410   -25.2050 ca         1 NSW       0.193100
     23 C29        -14.9080    -4.7220   -25.9200 ca         1 NSW      -0.182500
     24 C30        -14.0220    -3.7440   -25.5130 ca         1 NSW      -0.022500
     25 C31        -13.7140    -0.8200   -23.2490 cc         1 NSW      -0.111000
     26 N03        -11.6150     1.7630   -22.1600 n          1 NSW      -0.295100
     27 N22        -12.0530    -2.0350   -24.4240 nd         1 NSW      -0.573000
     28 N32        -12.7410     0.0750   -22.9300 n          1 NSW       0.061200
     29 O09         -9.1330     6.6240   -25.3450 oh         1 NSW      -0.511100
     30 O28        -16.9160    -5.8990   -25.6430 oh         1 NSW      -0.510100
     31 H1         -11.6120     6.0360   -25.0190 ha         1 NSW       0.140500
     32 H2          -9.8180     1.2130   -23.0480 hn         1 NSW       0.435000
     33 H3          -9.0560    -1.3460   -23.7370 hc         1 NSW       0.067700
     34 H4          -9.4400    -0.4620   -25.1930 hc         1 NSW       0.067700
     35 H6          -9.6310    -3.6980   -28.6310 ha         1 NSW       0.126000
     36 H7          -9.9340    -1.6450   -27.3020 ha         1 NSW       0.110000
     37 H8         -17.2510    -4.3380   -23.4950 ha         1 NSW       0.139000
     38 H9         -10.3950     2.7190   -20.7790 h1         1 NSW       0.096200
     39 H10        -12.0040     3.3930   -21.0030 h1         1 NSW       0.096200
     40 H11         -8.5450     3.6820   -21.9480 ha         1 NSW       0.118500
     41 H12         -7.6400     5.2530   -23.6000 ha         1 NSW       0.140500
     42 H13        -12.5100     4.4630   -23.3600 ha         1 NSW       0.118500
     43 H14         -8.7220    -5.8740   -25.0580 ha         1 NSW       0.126000
     44 H15         -9.0260    -5.8230   -27.5150 ha         1 NSW       0.128000
     45 H16        -15.6880    -2.6250   -22.7840 ha         1 NSW       0.124500
     46 H17        -14.6920    -5.3190   -26.7970 ha         1 NSW       0.139000
     47 H18        -13.1150    -3.5900   -26.0830 ha         1 NSW       0.124500
     48 H19        -14.7100    -0.5990   -22.8970 h4         1 NSW       0.202000
     49 H20         -8.1730     6.7100   -25.3090 ho         1 NSW       0.481000
     50 H21        -17.6980    -5.9570   -25.0800 ho         1 NSW       0.481000
     51 O01        -13.8830     1.6860   -21.6660 o          1 NSW      -0.431000
     52 C15         -9.7110    -1.3510   -24.6150 c3         1 NSW      -0.073400
     53 H5          -9.0260    -3.8200   -23.7320 ha         1 NSW       0.110000
@<TRIPOS>BOND
     1     1    14 ar  
     2     1    15 ar  
     3     1    31 1   
     4     2     3 2   
     5     2    26 1   
     6     2    32 1   
     7     3    16 1   
     8     3    28 1   
     9     4    17 ar  
    10     4    18 ar  
    11     4    53 1   
    12     5     6 ar  
    13     5    19 ar  
    14     5    35 1   
    15     6    17 ar  
    16     6    36 1   
    17     7    20 1   
    18     7    21 ar  
    19     7    24 ar  
    20     8    21 ar  
    21     8    22 ar  
    22     8    37 1   
    23     9    26 1   
    24     9    28 1   
    25     9    51 2   
    26    10    11 1   
    27    10    26 1   
    28    10    38 1   
    29    10    39 1   
    30    11    12 ar  
    31    11    15 ar  
    32    12    13 ar  
    33    12    40 1   
    34    13    14 ar  
    35    13    41 1   
    36    14    29 1   
    37    15    42 1   
    38    16    27 2   
    39    16    52 1   
    40    17    52 1   
    41    18    19 ar  
    42    18    43 1   
    43    19    44 1   
    44    20    25 2   
    45    20    27 1   
    46    21    45 1   
    47    22    23 ar  
    48    22    30 1   
    49    23    24 ar  
    50    23    46 1   
    51    24    47 1   
    52    25    28 1   
    53    25    48 1   
    54    29    49 1   
    55    30    50 1   
    56    33    52 1   
    57    34    52 1   
@<TRIPOS>SUBSTRUCTURE
     1 NSW         1 TEMP              0 ****  ****    0 ROOT
