@<TRIPOS>MOLECULE
NT0
   47    50     1     0     0
SMALL
No Charge or Current Charge


@<TRIPOS>ATOM
      1 C10         39.5830   -48.3630    61.3400 ca         1 NT0       0.437900
      2 C12         41.2260   -47.1920    60.2390 ca         1 NT0       0.325900
      3 C13         40.3730   -47.0110    59.0960 cp         1 NT0       0.337500
      4 C14         40.7970   -46.2490    57.8630 cp         1 NT0      -0.142500
      5 C15         39.8400   -45.7760    56.9210 ca         1 NT0      -0.084000
      6 O01         40.1000   -47.9040    64.2180 o          1 NT0      -0.547100
      7 C02         39.5060   -48.8920    63.8060 c          1 NT0       0.615100
      8 C03         38.9930   -49.9770    64.7510 c3         1 NT0      -0.190700
      9 C04         37.7100   -49.6170    65.4430 cc         1 NT0       0.112300
     10 C05         36.6140   -50.3790    65.7380 cd         1 NT0      -0.170000
     11 C06         35.7100   -49.5480    66.4310 cd         1 NT0      -0.183000
     12 C07         36.2920   -48.3140    66.5310 cc         1 NT0       0.138900
     13 O08         37.5320   -48.3430    65.9320 os         1 NT0      -0.245000
     14 N09         39.2290   -49.1160    62.4750 ns         1 NT0      -0.332900
     15 N11         40.8480   -47.8720    61.3570 nb         1 NT0      -0.638000
     16 C16         40.2320   -45.0640    55.7740 ca         1 NT0      -0.116000
     17 C17         41.5900   -44.8060    55.5340 ca         1 NT0      -0.098000
     18 C18         42.5550   -45.2640    56.4430 ca         1 NT0      -0.116000
     19 C19         42.1660   -45.9760    57.5910 ca         1 NT0      -0.084000
     20 N20         39.1160   -47.5370    59.0920 nb         1 NT0      -0.634000
     21 C21         38.7230   -48.2170    60.2040 ca         1 NT0       0.286300
     22 C22         37.3170   -48.8130    60.1630 c3         1 NT0      -0.081400
     23 C23         36.4330   -48.3390    61.3130 ca         1 NT0      -0.094300
     24 C24         35.7370   -49.2720    62.1060 ca         1 NT0      -0.107500
     25 C25         34.9190   -48.8350    63.1620 ca         1 NT0      -0.105500
     26 C26         34.8000   -47.4630    63.4380 ca         1 NT0      -0.108000
     27 C27         35.4920   -46.5270    62.6520 ca         1 NT0      -0.105500
     28 C28         36.3020   -46.9630    61.5890 ca         1 NT0      -0.107500
     29 H1          42.2290   -46.7720    60.2630 h4         1 NT0       0.036100
     30 H2          38.7790   -45.9540    57.0790 ha         1 NT0       0.122000
     31 H3          39.7570   -50.1550    65.5150 hc         1 NT0       0.090700
     32 H4          38.8210   -50.8980    64.1830 hc         1 NT0       0.090700
     33 H5          36.4740   -51.4260    65.4870 ha         1 NT0       0.141000
     34 H6          34.7340   -49.8260    66.8150 ha         1 NT0       0.144000
     35 H7          35.9610   -47.3850    66.9760 h4         1 NT0       0.055100
     36 H8          38.6630   -49.9310    62.2800 hn         1 NT0       0.175000
     37 H9          39.4800   -44.7110    55.0710 ha         1 NT0       0.115000
     38 H10         41.8930   -44.2560    54.6460 ha         1 NT0       0.114000
     39 H11         43.6090   -45.0700    56.2560 ha         1 NT0       0.115000
     40 H12         42.9470   -46.3250    58.2620 ha         1 NT0       0.122000
     41 H13         36.8280   -48.5620    59.2130 hc         1 NT0       0.072700
     42 H14         37.3980   -49.9060    60.1660 hc         1 NT0       0.072700
     43 H15         35.8220   -50.3380    61.9040 ha         1 NT0       0.115000
     44 H16         34.3810   -49.5600    63.7680 ha         1 NT0       0.114500
     45 H17         34.1710   -47.1260    64.2590 ha         1 NT0       0.113000
     46 H18         35.3970   -45.4640    62.8630 ha         1 NT0       0.114500
     47 H19         36.8260   -46.2290    60.9810 ha         1 NT0       0.115000
@<TRIPOS>BOND
     1     1    14 1   
     2     1    15 ar  
     3     1    21 ar  
     4     2     3 ar  
     5     2    15 ar  
     6     2    29 1   
     7     3     4 1   
     8     3    20 ar  
     9     4     5 ar  
    10     4    19 ar  
    11     5    16 ar  
    12     5    30 1   
    13     6     7 2   
    14     7     8 1   
    15     7    14 1   
    16     8     9 1   
    17     8    31 1   
    18     8    32 1   
    19     9    10 2   
    20     9    13 1   
    21    10    11 1   
    22    10    33 1   
    23    11    12 2   
    24    11    34 1   
    25    12    13 1   
    26    12    35 1   
    27    14    36 1   
    28    16    17 ar  
    29    16    37 1   
    30    17    18 ar  
    31    17    38 1   
    32    18    19 ar  
    33    18    39 1   
    34    19    40 1   
    35    20    21 ar  
    36    21    22 1   
    37    22    23 1   
    38    22    41 1   
    39    22    42 1   
    40    23    24 ar  
    41    23    28 ar  
    42    24    25 ar  
    43    24    43 1   
    44    25    26 ar  
    45    25    44 1   
    46    26    27 ar  
    47    26    45 1   
    48    27    28 ar  
    49    27    46 1   
    50    28    47 1   
@<TRIPOS>SUBSTRUCTURE
     1 NT0         1 TEMP              0 ****  ****    0 ROOT
