@<TRIPOS>MOLECULE
NT0
   47    50     1     0     0
SMALL
abcg2


@<TRIPOS>ATOM
      1 C10         39.5930   -48.2770    61.6200 ca         1 NT0       0.437900
      2 C12         41.0530   -46.9030    60.5510 ca         1 NT0       0.325900
      3 C13         40.2720   -46.9300    59.3940 cp         1 NT0       0.337500
      4 C14         40.6410   -46.1910    58.1700 cp         1 NT0      -0.142500
      5 C15         39.6510   -45.8010    57.2610 ca         1 NT0      -0.084000
      6 O01         41.2100   -49.8380    63.4440 o          1 NT0      -0.547100
      7 C02         40.0160   -49.6740    63.6180 c          1 NT0       0.615100
      8 C03         39.2880   -50.3100    64.8060 c3         1 NT0      -0.190700
      9 C04         38.1100   -49.5610    65.3010 cc         1 NT0       0.112300
     10 C05         36.7680   -49.7320    65.1780 cd         1 NT0      -0.170000
     11 C06         36.1470   -48.6120    65.8220 cd         1 NT0      -0.183000
     12 C07         37.1540   -47.8380    66.2920 cc         1 NT0       0.138900
     13 O08         38.3620   -48.3980    65.9830 os         1 NT0      -0.245000
     14 N09         39.2030   -48.9680    62.7740 ns         1 NT0      -0.332900
     15 N11         40.7100   -47.5640    61.6520 nb         1 NT0      -0.638000
     16 C16         39.9840   -45.0970    56.1120 ca         1 NT0      -0.116000
     17 C17         41.3130   -44.7730    55.8480 ca         1 NT0      -0.098000
     18 C18         42.3050   -45.1620    56.7420 ca         1 NT0      -0.116000
     19 C19         41.9740   -45.8640    57.8940 ca         1 NT0      -0.084000
     20 N20         39.1300   -47.6360    59.3880 nb         1 NT0      -0.634000
     21 C21         38.7770   -48.3160    60.4710 ca         1 NT0       0.286300
     22 C22         37.5070   -49.1180    60.4240 c3         1 NT0      -0.081400
     23 C23         36.3870   -48.5920    61.3020 ca         1 NT0      -0.094300
     24 C24         35.4280   -49.4770    61.8000 ca         1 NT0      -0.107500
     25 C25         34.3650   -49.0160    62.5650 ca         1 NT0      -0.105500
     26 C26         34.2490   -47.6600    62.8550 ca         1 NT0      -0.108000
     27 C27         35.2040   -46.7720    62.3740 ca         1 NT0      -0.105500
     28 C28         36.2640   -47.2350    61.6000 ca         1 NT0      -0.107500
     29 H1          41.9580   -46.3120    60.6040 h4         1 NT0       0.036100
     30 H2          38.6190   -46.0470    57.4680 ha         1 NT0       0.122000
     31 H3          40.0340   -50.4440    65.5900 hc         1 NT0       0.090700
     32 H4          38.9670   -51.3050    64.4870 hc         1 NT0       0.090700
     33 H5          36.2800   -50.5510    64.6770 ha         1 NT0       0.141000
     34 H6          35.0920   -48.4160    65.9120 ha         1 NT0       0.144000
     35 H7          37.1880   -46.9110    66.8380 h4         1 NT0       0.055100
     36 H8          38.2110   -49.0090    62.9690 hn         1 NT0       0.175000
     37 H9          39.2060   -44.7970    55.4220 ha         1 NT0       0.115000
     38 H10         41.5720   -44.2250    54.9510 ha         1 NT0       0.114000
     39 H11         43.3420   -44.9250    56.5410 ha         1 NT0       0.115000
     40 H12         42.7610   -46.1770    58.5670 ha         1 NT0       0.122000
     41 H13         37.1750   -49.1370    59.3840 hc         1 NT0       0.072700
     42 H14         37.7230   -50.1500    60.7110 hc         1 NT0       0.072700
     43 H15         35.5230   -50.5350    61.5890 ha         1 NT0       0.115000
     44 H16         33.6340   -49.7180    62.9470 ha         1 NT0       0.114500
     45 H17         33.4270   -47.3010    63.4620 ha         1 NT0       0.113000
     46 H18         35.1270   -45.7160    62.6010 ha         1 NT0       0.114500
     47 H19         36.9990   -46.5310    61.2290 ha         1 NT0       0.115000
@<TRIPOS>BOND
     1     1    14 1   
     2     1    15 ar  
     3     1    21 ar  
     4     2     3 ar  
     5     2    15 ar  
     6     2    29 1   
     7     3     4 1   
     8     3    20 ar  
     9     4     5 ar  
    10     4    19 ar  
    11     5    16 ar  
    12     5    30 1   
    13     6     7 2   
    14     7     8 1   
    15     7    14 1   
    16     8     9 1   
    17     8    31 1   
    18     8    32 1   
    19     9    10 2   
    20     9    13 1   
    21    10    11 1   
    22    10    33 1   
    23    11    12 2   
    24    11    34 1   
    25    12    13 1   
    26    12    35 1   
    27    14    36 1   
    28    16    17 ar  
    29    16    37 1   
    30    17    18 ar  
    31    17    38 1   
    32    18    19 ar  
    33    18    39 1   
    34    19    40 1   
    35    20    21 ar  
    36    21    22 1   
    37    22    23 1   
    38    22    41 1   
    39    22    42 1   
    40    23    24 ar  
    41    23    28 ar  
    42    24    25 ar  
    43    24    43 1   
    44    25    26 ar  
    45    25    44 1   
    46    26    27 ar  
    47    26    45 1   
    48    27    28 ar  
    49    27    46 1   
    50    28    47 1   
@<TRIPOS>SUBSTRUCTURE
     1 NT0         1 TEMP              0 ****  ****    0 ROOT
