@<TRIPOS>MOLECULE
NT4
   66    69     1     0     0
SMALL
abcg2


@<TRIPOS>ATOM
      1 N1          -3.4940    -0.7190    -0.1610 ns         1 NT4      -0.498900
      2 N3           7.4010    -4.8520     0.3150 n2         1 NT4      -0.828100
      3 C4           1.1610    -1.2810    -1.0220 ca         1 NT4       0.115100
      4 C5          -0.1700    -1.5150    -1.3240 ca         1 NT4      -0.099500
      5 C6          -1.1560    -0.7320    -0.7340 ca         1 NT4      -0.122600
      6 C7          -2.5830    -1.0150    -1.0990 c          1 NT4       0.611700
      7 C8          -4.9200    -0.9280    -0.3290 c6         1 NT4       0.108700
      8 C10          3.1350    -2.5730    -0.9430 ca         1 NT4       0.136600
      9 C13          1.0340     5.4860     0.0890 ca         1 NT4      -0.168900
     10 C15          1.1060     3.7810     1.8020 ca         1 NT4      -0.160500
     11 C17          5.4340    -3.2450    -0.9300 ca         1 NT4      -0.049750
     12 C20          2.9800    -3.0550     0.3490 ca         1 NT4      -0.160500
     13 C21         -5.3360    -2.3400     0.0810 c6         1 NT4      -0.087400
     14 C22         -6.8420    -2.5370    -0.0480 c6         1 NT4      -0.088900
     15 C24         -7.1940    -0.0930     0.3460 c6         1 NT4      -0.088900
     16 O1          -2.8630    -1.4840    -2.1940 o          1 NT4      -0.593100
     17 C23         -7.6230    -1.5040     0.7570 c6         1 NT4       0.153500
     18 N2          -9.0520    -1.7540     0.6320 n8         1 NT4      -0.986200
     19 C25         -5.6890     0.1140     0.4770 c6         1 NT4      -0.087400
     20 C16          4.3630    -2.6650    -1.5850 ca         1 NT4      -0.160500
     21 C18          5.3080    -3.7220     0.3730 ca         1 NT4      -0.168900
     22 N4           6.4320    -4.3640     2.4080 nv         1 NT4      -1.075700
     23 C19          4.0670    -3.6200     0.9980 ca         1 NT4      -0.049750
     24 C3           1.5310    -0.2580    -0.1570 ca         1 NT4      -0.143000
     25 C2           0.5350     0.5140     0.4140 ca         1 NT4       0.115100
     26 C1          -0.8060     0.2910     0.1400 ca         1 NT4      -0.099500
     27 O2           0.8920     1.5110     1.2820 os         1 NT4      -0.251200
     28 C9           0.9230     2.7970     0.8340 ca         1 NT4       0.136600
     29 C11          0.8010     3.1470    -0.5040 ca         1 NT4      -0.160500
     30 C12          0.8550     4.4870    -0.8630 ca         1 NT4      -0.049750
     31 C14          1.1670     5.1080     1.4250 ca         1 NT4      -0.049750
     32 H1          -3.1770    -0.4820     0.7660 hn         1 NT4       0.313500
     33 H2           8.1600    -5.2180     0.8840 hn         1 NT4       0.371900
     34 H3          -0.4340    -2.3120    -2.0070 ha         1 NT4       0.144500
     35 H4          -5.1480    -0.7860    -1.3890 h1         1 NT4       0.080700
     36 H5           1.1980     3.5020     2.8440 ha         1 NT4       0.131250
     37 H6           6.3900    -3.3170    -1.4310 ha         1 NT4       0.130500
     38 H7           2.0230    -3.0100     0.8530 ha         1 NT4       0.131250
     39 H8          -4.8060    -3.0740    -0.5300 hc         1 NT4       0.047450
     40 H9          -5.0280    -2.5100     1.1190 hc         1 NT4       0.047450
     41 H10         -7.1310    -2.4590    -1.1030 hc         1 NT4       0.046950
     42 H11         -7.1170    -3.5430     0.2780 hc         1 NT4       0.046950
     43 H12         -7.5000     0.0770    -0.6930 hc         1 NT4       0.046950
     44 H13         -7.7210     0.6480     0.9520 hc         1 NT4       0.046950
     45 H14         -7.3660    -1.6390     1.8160 h1         1 NT4       0.058700
     46 H15         -9.5610    -1.0760     1.1870 hn         1 NT4       0.391500
     47 H16         -9.3380    -1.5840    -0.3270 hn         1 NT4       0.391500
     48 H18         -5.4020     0.0360     1.5330 hc         1 NT4       0.047450
     49 H19         -5.4110     1.1170     0.1470 hc         1 NT4       0.047450
     50 H20          4.4780    -2.2850    -2.5920 ha         1 NT4       0.131250
     51 H21          7.2620    -4.6600     2.8960 hn         1 NT4       0.460250
     52 H22          5.9310    -3.6270     2.8780 hn         1 NT4       0.460250
     53 H23          3.9180    -4.0070     1.9980 ha         1 NT4       0.130500
     54 H24          2.5710    -0.0540     0.0650 ha         1 NT4       0.147000
     55 H25         -1.5520     0.9340     0.5910 ha         1 NT4       0.144500
     56 H26          0.6780     2.4000    -1.2760 ha         1 NT4       0.131250
     57 H27          0.7770     4.7330    -1.9140 ha         1 NT4       0.130500
     58 H28         -0.2730     6.7110    -1.7750 hn         1 NT4       0.460250
     59 H29          0.4380     8.2340    -1.6860 hn         1 NT4       0.460250
     60 H30          1.6930     8.6790     0.1470 hn         1 NT4       0.371900
     61 H31          1.3080     5.8700     2.1800 ha         1 NT4       0.130500
     62 O3           2.0960    -2.0440    -1.6550 os         1 NT4      -0.251200
     63 C27          1.1090     6.9240    -0.2810 ce         1 NT4       0.663800
     64 C26          6.4810    -4.3460     1.0430 ce         1 NT4       0.663800
     65 N5           0.5180     7.2530    -1.4690 nv         1 NT4      -1.075700
     66 N6           1.7440     7.7230     0.4880 n2         1 NT4      -0.828100
@<TRIPOS>BOND
     1     1     6 1   
     2     1     7 1   
     3     1    32 1   
     4     2    33 1   
     5     2    64 2   
     6     3     4 ar  
     7     3    24 ar  
     8     3    62 1   
     9     4     5 ar  
    10     4    34 1   
    11     5     6 1   
    12     5    26 ar  
    13     6    16 2   
    14     7    13 1   
    15     7    19 1   
    16     7    35 1   
    17     8    12 ar  
    18     8    20 ar  
    19     8    62 1   
    20     9    30 ar  
    21     9    31 ar  
    22     9    63 1   
    23    10    28 ar  
    24    10    31 ar  
    25    10    36 1   
    26    11    20 ar  
    27    11    21 ar  
    28    11    37 1   
    29    12    23 ar  
    30    12    38 1   
    31    13    14 1   
    32    13    39 1   
    33    13    40 1   
    34    14    17 1   
    35    14    41 1   
    36    14    42 1   
    37    15    17 1   
    38    15    19 1   
    39    15    43 1   
    40    15    44 1   
    41    17    18 1   
    42    17    45 1   
    43    18    46 1   
    44    18    47 1   
    45    19    48 1   
    46    19    49 1   
    47    20    50 1   
    48    21    23 ar  
    49    21    64 1   
    50    22    51 1   
    51    22    52 1   
    52    22    64 1   
    53    23    53 1   
    54    24    25 ar  
    55    24    54 1   
    56    25    26 ar  
    57    25    27 1   
    58    26    55 1   
    59    27    28 1   
    60    28    29 ar  
    61    29    30 ar  
    62    29    56 1   
    63    30    57 1   
    64    31    61 1   
    65    58    65 1   
    66    59    65 1   
    67    60    66 1   
    68    63    65 1   
    69    63    66 2   
@<TRIPOS>SUBSTRUCTURE
     1 NT4         1 TEMP              0 ****  ****    0 ROOT
