@<TRIPOS>MOLECULE
NT4
   66    69     1     0     0
SMALL
No Charge or Current Charge


@<TRIPOS>ATOM
      1 N1          -3.2040    -0.5340    -0.4660 ns         1 NT4      -0.498900
      2 N3           8.1210    -5.0790     0.3130 n2         1 NT4      -0.828100
      3 C4           1.4680    -1.9480    -1.0870 ca         1 NT4       0.115100
      4 C5           0.0900    -2.1450    -1.2720 ca         1 NT4      -0.099500
      5 C6          -0.8530    -1.2240    -0.7580 ca         1 NT4      -0.122600
      6 C7          -2.3340    -1.4790    -0.9670 c          1 NT4       0.611700
      7 C8          -4.6680    -0.5950    -0.5400 c6         1 NT4       0.108700
      8 C10          3.5060    -3.2460    -0.9730 ca         1 NT4       0.136600
      9 C13         -0.2160     5.0570     0.4920 ca         1 NT4      -0.168900
     10 C15          0.8680     3.2910     1.8010 ca         1 NT4      -0.160500
     11 C17          5.8460    -3.9020    -1.1110 ca         1 NT4      -0.049750
     12 C20          3.5440    -3.4240     0.4220 ca         1 NT4      -0.160500
     13 C21         -5.2340    -1.4870     0.5970 c6         1 NT4      -0.087400
     14 C22         -6.7840    -1.5270     0.5680 c6         1 NT4      -0.088900
     15 C24         -6.8140     0.8050    -0.4660 c6         1 NT4      -0.088900
     16 O1          -2.7470    -2.4720    -1.5510 o          1 NT4      -0.593100
     17 C23         -7.3800    -0.1000     0.6570 c6         1 NT4       0.153500
     18 N2          -8.8510    -0.1520     0.5840 n8         1 NT4      -0.986200
     19 C25         -5.2640     0.8330    -0.4300 c6         1 NT4      -0.087400
     20 C16          4.6530    -3.5000    -1.7370 ca         1 NT4      -0.160500
     21 C18          5.9120    -4.0490     0.2940 ca         1 NT4      -0.168900
     22 N4           7.3730    -4.2050     2.2460 nv         1 NT4      -1.075700
     23 C19          4.7360    -3.8250     1.0510 ca         1 NT4      -0.049750
     24 C3           1.9320    -0.8100    -0.4070 ca         1 NT4      -0.143000
     25 C2           1.0150     0.1200     0.1000 ca         1 NT4       0.115100
     26 C1          -0.3700    -0.0880    -0.0590 ca         1 NT4      -0.099500
     27 O2           1.4940     1.2190     0.7770 os         1 NT4      -0.251200
     28 C9           0.9270     2.4690     0.6680 ca         1 NT4       0.136600
     29 C11          0.4480     2.9460    -0.5650 ca         1 NT4      -0.160500
     30 C12         -0.1160     4.2310    -0.6550 ca         1 NT4      -0.049750
     31 C14          0.3050     4.5760     1.7160 ca         1 NT4      -0.049750
     32 H1          -2.7880     0.2610    -0.0020 hn         1 NT4       0.313500
     33 H2           8.7710    -5.4740     1.0010 hn         1 NT4       0.371900
     34 H3          -0.2440    -3.0270    -1.8140 ha         1 NT4       0.144500
     35 H4          -4.9540    -1.0250    -1.5120 h1         1 NT4       0.080700
     36 H5           1.2570     2.9300     2.7500 ha         1 NT4       0.131250
     37 H6           6.7250    -4.0920    -1.7250 ha         1 NT4       0.130500
     38 H7           2.6500    -3.2630     1.0190 ha         1 NT4       0.131250
     39 H8          -4.8410    -2.5090     0.5010 hc         1 NT4       0.047450
     40 H9          -4.8930    -1.1130     1.5720 hc         1 NT4       0.047450
     41 H10         -7.1200    -2.0200    -0.3550 hc         1 NT4       0.046950
     42 H11         -7.1510    -2.1400     1.4030 hc         1 NT4       0.046950
     43 H12         -7.1490     0.4440    -1.4490 hc         1 NT4       0.046950
     44 H13         -7.2000     1.8280    -0.3580 hc         1 NT4       0.046950
     45 H14         -7.1100     0.3370     1.6330 h1         1 NT4       0.058700
     46 H15         -9.2160     0.8080     0.5880 hn         1 NT4       0.391500
     47 H16         -9.1210    -0.5060    -0.3410 hn         1 NT4       0.391500
     48 H18         -4.9270     1.3100     0.5010 hc         1 NT4       0.047450
     49 H19         -4.8890     1.4560    -1.2540 hc         1 NT4       0.047450
     50 H20          4.6180    -3.3840    -2.8170 ha         1 NT4       0.131250
     51 H21          8.3400    -4.1300     2.5400 hn         1 NT4       0.460250
     52 H22          6.7570    -3.4920     2.6190 hn         1 NT4       0.460250
     53 H23          4.7310    -3.9740     2.1290 ha         1 NT4       0.130500
     54 H24          2.9970    -0.6390    -0.2770 ha         1 NT4       0.147000
     55 H25         -1.0530     0.6390     0.3690 ha         1 NT4       0.144500
     56 H26          0.5220     2.3300    -1.4570 ha         1 NT4       0.131250
     57 H27         -0.4600     4.5830    -1.6250 ha         1 NT4       0.130500
     58 H28         -2.0440     5.8920    -1.0420 hn         1 NT4       0.460250
     59 H29         -2.3260     7.4510    -0.4010 hn         1 NT4       0.460250
     60 H30         -0.8810     8.2370     0.8900 hn         1 NT4       0.371900
     61 H31          0.2680     5.1960     2.6100 ha         1 NT4       0.130500
     62 O3           2.3470    -2.8690    -1.6130 os         1 NT4      -0.251200
     63 C27         -0.7810     6.4430     0.4050 ce         1 NT4       0.663800
     64 C26          7.1800    -4.5110     0.9460 ce         1 NT4       0.663800
     65 N5          -1.6600     6.7100    -0.5830 nv         1 NT4      -1.075700
     66 N6          -0.5550     7.3420     1.2710 n2         1 NT4      -0.828100
@<TRIPOS>BOND
     1     1     6 1   
     2     1     7 1   
     3     1    32 1   
     4     2    33 1   
     5     2    64 2   
     6     3     4 ar  
     7     3    24 ar  
     8     3    62 1   
     9     4     5 ar  
    10     4    34 1   
    11     5     6 1   
    12     5    26 ar  
    13     6    16 2   
    14     7    13 1   
    15     7    19 1   
    16     7    35 1   
    17     8    12 ar  
    18     8    20 ar  
    19     8    62 1   
    20     9    30 ar  
    21     9    31 ar  
    22     9    63 1   
    23    10    28 ar  
    24    10    31 ar  
    25    10    36 1   
    26    11    20 ar  
    27    11    21 ar  
    28    11    37 1   
    29    12    23 ar  
    30    12    38 1   
    31    13    14 1   
    32    13    39 1   
    33    13    40 1   
    34    14    17 1   
    35    14    41 1   
    36    14    42 1   
    37    15    17 1   
    38    15    19 1   
    39    15    43 1   
    40    15    44 1   
    41    17    18 1   
    42    17    45 1   
    43    18    46 1   
    44    18    47 1   
    45    19    48 1   
    46    19    49 1   
    47    20    50 1   
    48    21    23 ar  
    49    21    64 1   
    50    22    51 1   
    51    22    52 1   
    52    22    64 1   
    53    23    53 1   
    54    24    25 ar  
    55    24    54 1   
    56    25    26 ar  
    57    25    27 1   
    58    26    55 1   
    59    27    28 1   
    60    28    29 ar  
    61    29    30 ar  
    62    29    56 1   
    63    30    57 1   
    64    31    61 1   
    65    58    65 1   
    66    59    65 1   
    67    60    66 1   
    68    63    65 1   
    69    63    66 2   
@<TRIPOS>SUBSTRUCTURE
     1 NT4         1 TEMP              0 ****  ****    0 ROOT
