@<TRIPOS>MOLECULE
NT5
   56    59     1     0     0
SMALL
No Charge or Current Charge


@<TRIPOS>ATOM
      1 C1          24.8480    -4.7580    94.5800 c3         1 NT5      -0.101100
      2 C10         27.1290     4.3550    96.7130 ca         1 NT5       0.065000
      3 C11         26.0160     3.7940    96.0520 ca         1 NT5       0.344900
      4 C12         26.7740    -2.3250    95.0640 c6         1 NT5       0.106000
      5 C13         25.1970    -2.0550    97.0540 c          1 NT5       0.628700
      6 C14         26.3070    -1.4550    97.8930 ca         1 NT5      -0.082600
      7 C15         26.2020    -0.1240    98.3410 ca         1 NT5      -0.091000
      8 C16         27.2370     0.4590    99.0910 ca         1 NT5      -0.060300
      9 C17         28.3790    -0.3010    99.3920 ca         1 NT5      -0.115000
     10 C18         28.4760    -1.6400    98.9750 ca         1 NT5      -0.070000
     11 C19         27.4360    -2.2650    98.2400 cp         1 NT5      -0.127500
     12 C2          24.4720    -3.3000    94.9610 c6         1 NT5       0.104700
     13 C20         27.5600    -3.7210    97.8970 cp         1 NT5       0.179500
     14 C21         26.6180    -5.8290    97.8290 ca         1 NT5       0.110400
     15 C22         27.8060    -6.3420    97.2840 ca         1 NT5      -0.222000
     16 C23         28.8650    -5.4420    97.0790 ca         1 NT5       0.110400
     17 C24         27.1220     1.8940    99.5810 c3         1 NT5      -0.049800
     18 C3          24.1510    -2.4240    93.7180 c6         1 NT5      -0.087400
     19 C4          25.4290    -2.0470    92.9230 c6         1 NT5      -0.067400
     20 C5          26.5050    -1.4070    93.8430 c6         1 NT5      -0.083700
     21 C6          26.1300     0.0370    94.2870 c3         1 NT5       0.175600
     22 C7          27.1790     1.8490    95.5640 ca         1 NT5       0.578300
     23 C8          28.3310     2.3350    96.2090 ca         1 NT5      -0.155000
     24 C9          28.3160     3.6130    96.7950 ca         1 NT5      -0.080000
     25 N1          26.0330     2.5630    95.4820 nb         1 NT5      -0.735000
     26 N2          25.5160    -2.6440    95.8030 n          1 NT5      -0.404800
     27 N3          26.4960    -4.5220    98.1340 nb         1 NT5      -0.166500
     28 N4          28.7420    -4.1360    97.3890 nb         1 NT5      -0.166500
     29 O1          27.2470     0.5990    95.0010 os         1 NT5      -0.473300
     30 O2          24.0420    -2.0310    97.4650 o          1 NT5      -0.602100
     31 H12         25.0180    -5.3630    95.4770 hc         1 NT5       0.039367
     32 H11         24.0400    -5.2350    94.0130 hc         1 NT5       0.039367
     33 H13         25.7550    -4.8110    93.9680 hc         1 NT5       0.039367
     34 H111        25.0820     4.3500    95.9760 h4         1 NT5       0.037100
     35 H122        27.2350    -3.2610    94.7190 h1         1 NT5       0.058200
     36 H121        27.5150    -1.8440    95.7140 h1         1 NT5       0.058200
     37 H151        25.3200     0.4600    98.0880 ha         1 NT5       0.127000
     38 H171        29.1890     0.1390    99.9700 ha         1 NT5       0.115000
     39 H181        29.3590    -2.2110    99.2540 ha         1 NT5       0.130000
     40 H21         23.5400    -3.3830    95.5390 h1         1 NT5       0.088700
     41 H211        25.7550    -6.4660    98.0190 h4         1 NT5       0.027600
     42 H221        27.9050    -7.3950    97.0350 ha         1 NT5       0.136000
     43 H231        29.8180    -5.7660    96.6650 h4         1 NT5       0.027600
     44 H241        26.7910     1.9230   100.6260 hc         1 NT5       0.046700
     45 H243        28.0860     2.4130    99.5220 hc         1 NT5       0.046700
     46 H242        26.4010     2.4670    98.9870 hc         1 NT5       0.046700
     47 H32         23.6390    -1.5090    94.0450 hc         1 NT5       0.050700
     48 H31         23.4420    -2.9460    93.0610 hc         1 NT5       0.050700
     49 H42         25.8440    -2.9440    92.4450 hc         1 NT5       0.045700
     50 H41         25.1720    -1.3610    92.1040 hc         1 NT5       0.045700
     51 H51         27.4360    -1.3120    93.2660 hc         1 NT5       0.065700
     52 H61         25.8990     0.6390    93.3980 h1         1 NT5       0.055700
     53 H62         25.2360     0.0040    94.9230 h1         1 NT5       0.055700
     54 H81         29.2220     1.7170    96.2480 ha         1 NT5       0.144000
     55 H91         29.1930     4.0140    97.2980 ha         1 NT5       0.139000
     56 F1          27.0570     5.5880    97.2650 f          1 NT5      -0.176000
@<TRIPOS>BOND
     1     1    12 1   
     2     1    31 1   
     3     1    32 1   
     4     1    33 1   
     5     2     3 ar  
     6     2    24 ar  
     7     2    56 1   
     8     3    25 ar  
     9     3    34 1   
    10     4    20 1   
    11     4    26 1   
    12     4    35 1   
    13     4    36 1   
    14     5     6 1   
    15     5    26 1   
    16     5    30 2   
    17     6     7 ar  
    18     6    11 ar  
    19     7     8 ar  
    20     7    37 1   
    21     8     9 ar  
    22     8    17 1   
    23     9    10 ar  
    24     9    38 1   
    25    10    11 ar  
    26    10    39 1   
    27    11    13 1   
    28    12    18 1   
    29    12    26 1   
    30    12    40 1   
    31    13    27 ar  
    32    13    28 ar  
    33    14    15 ar  
    34    14    27 ar  
    35    14    41 1   
    36    15    16 ar  
    37    15    42 1   
    38    16    28 ar  
    39    16    43 1   
    40    17    44 1   
    41    17    45 1   
    42    17    46 1   
    43    18    19 1   
    44    18    47 1   
    45    18    48 1   
    46    19    20 1   
    47    19    49 1   
    48    19    50 1   
    49    20    21 1   
    50    20    51 1   
    51    21    29 1   
    52    21    52 1   
    53    21    53 1   
    54    22    23 ar  
    55    22    25 ar  
    56    22    29 1   
    57    23    24 ar  
    58    23    54 1   
    59    24    55 1   
@<TRIPOS>SUBSTRUCTURE
     1 NT5         1 TEMP              0 ****  ****    0 ROOT
