@<TRIPOS>MOLECULE
NT5
   56    59     1     0     0
SMALL
abcg2


@<TRIPOS>ATOM
      1 C1          24.5260    -4.5930    94.6810 c3         1 NT5      -0.101100
      2 C10         27.4270     4.1440    96.6590 ca         1 NT5       0.065000
      3 C11         26.3100     3.6890    96.0010 ca         1 NT5       0.344900
      4 C12         26.6170    -2.3350    95.1060 c6         1 NT5       0.106000
      5 C13         25.1590    -2.2740    97.1190 c          1 NT5       0.628700
      6 C14         26.2740    -1.6190    97.8930 ca         1 NT5      -0.082600
      7 C15         26.0550    -0.2950    98.2660 ca         1 NT5      -0.091000
      8 C16         26.9920     0.4290    98.9990 ca         1 NT5      -0.060300
      9 C17         28.1860    -0.2060    99.3440 ca         1 NT5      -0.115000
     10 C18         28.4210    -1.5210    98.9750 ca         1 NT5      -0.070000
     11 C19         27.4710    -2.2530    98.2580 cp         1 NT5      -0.127500
     12 C2          24.2610    -3.1240    95.0140 c6         1 NT5       0.104700
     13 C20         27.7590    -3.6590    97.8940 cp         1 NT5       0.179500
     14 C21         26.9950    -5.7690    97.4880 ca         1 NT5       0.110400
     15 C22         28.2800    -6.1980    97.1980 ca         1 NT5      -0.222000
     16 C23         29.2850    -5.2460    97.3000 ca         1 NT5       0.110400
     17 C24         26.7070     1.8400    99.4260 c3         1 NT5      -0.049800
     18 C3          24.0240    -2.2460    93.7790 c6         1 NT5      -0.087400
     19 C4          25.3070    -1.9700    92.9930 c6         1 NT5      -0.067400
     20 C5          26.4250    -1.4240    93.8900 c6         1 NT5      -0.083700
     21 C6          26.1630     0.0110    94.3170 c3         1 NT5       0.175600
     22 C7          27.3370     1.6920    95.5590 ca         1 NT5       0.578300
     23 C8          28.5090     2.0830    96.2260 ca         1 NT5      -0.155000
     24 C9          28.5530     3.3410    96.7860 ca         1 NT5      -0.080000
     25 N1          26.2690     2.4650    95.4510 nb         1 NT5      -0.735000
     26 N2          25.3580    -2.5490    95.8140 n          1 NT5      -0.404800
     27 N3          26.7290    -4.5120    97.8410 nb         1 NT5      -0.166500
     28 N4          29.0350    -3.9820    97.6410 nb         1 NT5      -0.166500
     29 O1          27.3400     0.4620    95.0110 os         1 NT5      -0.473300
     30 O2          24.0780    -2.4550    97.6910 o          1 NT5      -0.602100
     31 H12         24.6620    -5.1710    95.5950 hc         1 NT5       0.039367
     32 H11         23.6700    -5.0000    94.1400 hc         1 NT5       0.039367
     33 H13         25.4100    -4.7260    94.0580 hc         1 NT5       0.039367
     34 H111        25.4280     4.3130    95.9090 h4         1 NT5       0.037100
     35 H122        27.0170    -3.2990    94.7850 h1         1 NT5       0.058200
     36 H121        27.3380    -1.8900    95.7810 h1         1 NT5       0.058200
     37 H151        25.1330     0.1850    97.9620 ha         1 NT5       0.127000
     38 H171        28.9370     0.3360    99.9050 ha         1 NT5       0.115000
     39 H181        29.3490    -2.0020    99.2520 ha         1 NT5       0.130000
     40 H21         23.3790    -3.0750    95.6470 h1         1 NT5       0.088700
     41 H211        26.1510    -6.4490    97.4410 h4         1 NT5       0.027600
     42 H221        28.4900    -7.2180    96.9110 ha         1 NT5       0.136000
     43 H231        30.3190    -5.5000    97.0970 h4         1 NT5       0.027600
     44 H241        26.1920     1.8490   100.3910 hc         1 NT5       0.046700
     45 H243        27.6280     2.4120    99.5390 hc         1 NT5       0.046700
     46 H242        26.0680     2.3490    98.7060 hc         1 NT5       0.046700
     47 H32         23.5800    -1.3030    94.1060 hc         1 NT5       0.050700
     48 H31         23.2890    -2.7360    93.1380 hc         1 NT5       0.050700
     49 H42         25.6630    -2.8940    92.5300 hc         1 NT5       0.045700
     50 H41         25.1030    -1.2700    92.1790 hc         1 NT5       0.045700
     51 H51         27.3630    -1.4330    93.3280 hc         1 NT5       0.065700
     52 H61         25.9880     0.6510    93.4500 h1         1 NT5       0.055700
     53 H62         25.3030     0.0930    94.9810 h1         1 NT5       0.055700
     54 H81         29.3450     1.4020    96.2950 ha         1 NT5       0.144000
     55 H91         29.4270     3.6980    97.3150 ha         1 NT5       0.139000
     56 F1          27.4260     5.3880    97.2010 f          1 NT5      -0.176000
@<TRIPOS>BOND
     1     1    12 1   
     2     1    31 1   
     3     1    32 1   
     4     1    33 1   
     5     2     3 ar  
     6     2    24 ar  
     7     2    56 1   
     8     3    25 ar  
     9     3    34 1   
    10     4    20 1   
    11     4    26 1   
    12     4    35 1   
    13     4    36 1   
    14     5     6 1   
    15     5    26 1   
    16     5    30 2   
    17     6     7 ar  
    18     6    11 ar  
    19     7     8 ar  
    20     7    37 1   
    21     8     9 ar  
    22     8    17 1   
    23     9    10 ar  
    24     9    38 1   
    25    10    11 ar  
    26    10    39 1   
    27    11    13 1   
    28    12    18 1   
    29    12    26 1   
    30    12    40 1   
    31    13    27 ar  
    32    13    28 ar  
    33    14    15 ar  
    34    14    27 ar  
    35    14    41 1   
    36    15    16 ar  
    37    15    42 1   
    38    16    28 ar  
    39    16    43 1   
    40    17    44 1   
    41    17    45 1   
    42    17    46 1   
    43    18    19 1   
    44    18    47 1   
    45    18    48 1   
    46    19    20 1   
    47    19    49 1   
    48    19    50 1   
    49    20    21 1   
    50    20    51 1   
    51    21    29 1   
    52    21    52 1   
    53    21    53 1   
    54    22    23 ar  
    55    22    25 ar  
    56    22    29 1   
    57    23    24 ar  
    58    23    54 1   
    59    24    55 1   
@<TRIPOS>SUBSTRUCTURE
     1 NT5         1 TEMP              0 ****  ****    0 ROOT
