@<TRIPOS>MOLECULE
NT6
   39    42     1     0     0
SMALL
No Charge or Current Charge


@<TRIPOS>ATOM
      1 C1          -1.5870   -22.7940    21.6380 ca         1 NT6       0.173000
      2 C2          -1.5380   -24.1260    22.0710 ca         1 NT6      -0.171000
      3 N           -1.0580   -26.4900    21.4130 ns         1 NT6      -0.320900
      4 C           -1.2570   -22.5000    20.3030 ca         1 NT6       0.018000
      5 C10         -0.2130   -29.1800    23.6280 c6         1 NT6      -0.064400
      6 C11          0.7750   -31.1000    22.2980 c6         1 NT6      -0.070733
      7 C12         -0.1290   -30.7270    21.0900 c6         1 NT6      -0.058367
      8 C13         -1.4690   -31.5080    21.1850 c6         1 NT6      -0.070733
      9 C14         -0.4190   -29.1980    21.1150 c6         1 NT6      -0.064400
     10 C15         -0.8870   -23.5650    19.4610 ca         1 NT6       0.394900
     11 C3          -1.1620   -25.1200    21.1510 ca         1 NT6       0.493900
     12 C4          -1.4580   -27.2420    22.4950 c          1 NT6       0.619100
     13 C5          -1.1560   -28.7760    22.4460 c6         1 NT6      -0.120000
     14 C6          -2.4900   -29.5940    22.4990 c6         1 NT6      -0.064400
     15 C7          -2.1990   -31.1220    22.5010 c6         1 NT6      -0.058367
     16 C8          -1.2960   -31.4790    23.7180 c6         1 NT6      -0.070733
     17 C9           0.0560   -30.7130    23.6190 c6         1 NT6      -0.058367
     18 N1          -0.8370   -24.8570    19.8720 nb         1 NT6      -0.732000
     19 Cl          -1.2940   -20.8460    19.6840 cl         1 NT6      -0.156000
     20 Cl1         -2.0550   -21.5260    22.7710 cl         1 NT6      -0.154000
     21 H1          -1.7800   -24.3620    23.0990 ha         1 NT6       0.175000
     22 H2          -0.6210   -27.0070    20.6640 hn         1 NT6       0.173000
     23 H4          -0.6680   -28.8960    24.5870 hc         1 NT6       0.050533
     24 H5           0.9980   -32.1760    22.2880 hc         1 NT6       0.043700
     25 H6           1.7410   -30.5820    22.2240 hc         1 NT6       0.043700
     26 H7           0.3830   -30.9900    20.1540 hc         1 NT6       0.054033
     27 H8          -2.1040   -31.2800    20.3170 hc         1 NT6       0.043700
     28 H9          -1.2820   -32.5900    21.1570 hc         1 NT6       0.043700
     29 H10          0.5300   -28.6520    21.0100 hc         1 NT6       0.050533
     30 H11         -1.0270   -28.9350    20.2370 hc         1 NT6       0.050533
     31 H12         -0.6210   -23.3780    18.4210 h4         1 NT6       0.036100
     32 H13         -3.1340   -29.3320    21.6470 hc         1 NT6       0.050533
     33 H14         -3.0580   -29.3300    23.4020 hc         1 NT6       0.050533
     34 H15         -3.1460   -31.6760    22.5700 hc         1 NT6       0.054033
     35 H16         -1.8080   -31.2250    24.6570 hc         1 NT6       0.043700
     36 H17         -1.1150   -32.5620    23.7490 hc         1 NT6       0.043700
     37 H18          0.6930   -30.9780    24.4750 hc         1 NT6       0.054033
     38 H3           0.7370   -28.6290    23.5670 hc         1 NT6       0.050533
     39 O           -2.0320   -26.7490    23.4570 o          1 NT6      -0.576100
@<TRIPOS>BOND
     1     1     2 ar  
     2     1     4 ar  
     3     1    20 1   
     4     2    11 ar  
     5     2    21 1   
     6     3    11 1   
     7     3    12 1   
     8     3    22 1   
     9     4    10 ar  
    10     4    19 1   
    11     5    13 1   
    12     5    17 1   
    13     5    23 1   
    14     5    38 1   
    15     6     7 1   
    16     6    17 1   
    17     6    24 1   
    18     6    25 1   
    19     7     8 1   
    20     7     9 1   
    21     7    26 1   
    22     8    15 1   
    23     8    27 1   
    24     8    28 1   
    25     9    13 1   
    26     9    29 1   
    27     9    30 1   
    28    10    18 ar  
    29    10    31 1   
    30    11    18 ar  
    31    12    13 1   
    32    12    39 2   
    33    13    14 1   
    34    14    15 1   
    35    14    32 1   
    36    14    33 1   
    37    15    16 1   
    38    15    34 1   
    39    16    17 1   
    40    16    35 1   
    41    16    36 1   
    42    17    37 1   
@<TRIPOS>SUBSTRUCTURE
     1 NT6         1 TEMP              0 ****  ****    0 ROOT
