@<TRIPOS>MOLECULE
NT6
   39    42     1     0     0
SMALL
abcg2


@<TRIPOS>ATOM
      1 C1          -1.6790   -22.9390    21.6700 ca         1 NT6       0.173000
      2 C2          -1.5610   -24.2590    22.0610 ca         1 NT6      -0.171000
      3 N           -1.0070   -26.5430    21.3300 ns         1 NT6      -0.320900
      4 C           -1.4180   -22.5750    20.3550 ca         1 NT6       0.018000
      5 C10         -0.1760   -29.2010    23.6230 c6         1 NT6      -0.064400
      6 C11          0.7170   -31.1740    22.3750 c6         1 NT6      -0.070733
      7 C12         -0.0900   -30.7550    21.1470 c6         1 NT6      -0.058367
      8 C13         -1.4710   -31.4100    21.1890 c6         1 NT6      -0.070733
      9 C14         -0.2530   -29.2330    21.1280 c6         1 NT6      -0.064400
     10 C15         -1.0450   -23.5790    19.4770 ca         1 NT6       0.394900
     11 C3          -1.1750   -25.1880    21.0940 ca         1 NT6       0.493900
     12 C4          -1.2120   -27.2530    22.4770 c          1 NT6       0.619100
     13 C5          -0.9880   -28.7600    22.3920 c6         1 NT6      -0.120000
     14 C6          -2.3730   -29.4400    22.4390 c6         1 NT6      -0.064400
     15 C7          -2.2080   -30.9610    22.4520 c6         1 NT6      -0.058367
     16 C8          -1.4030   -31.3750    23.6850 c6         1 NT6      -0.070733
     17 C9          -0.0200   -30.7220    23.6360 c6         1 NT6      -0.058367
     18 N1          -0.9270   -24.8430    19.8350 nb         1 NT6      -0.732000
     19 CL          -1.5420   -20.9510    19.8170 cl         1 NT6      -0.156000
     20 CL1         -2.1510   -21.7620    22.8220 cl         1 NT6      -0.154000
     21 H1          -1.7610   -24.5480    23.0790 ha         1 NT6       0.175000
     22 H2          -0.7050   -27.0440    20.5080 hn         1 NT6       0.173000
     23 H4          -0.6780   -28.8750    24.5370 hc         1 NT6       0.050533
     24 H5           0.8520   -32.2600    22.3840 hc         1 NT6       0.043700
     25 H6           1.7160   -30.7290    22.3410 hc         1 NT6       0.043700
     26 H7           0.4340   -31.0610    20.2370 hc         1 NT6       0.054033
     27 H8          -2.0460   -31.1360    20.2990 hc         1 NT6       0.043700
     28 H9          -1.3700   -32.5000    21.1790 hc         1 NT6       0.043700
     29 H10          0.7300   -28.7560    21.0560 hc         1 NT6       0.050533
     30 H11         -0.8130   -28.9650    20.2240 hc         1 NT6       0.050533
     31 H12         -0.8340   -23.3380    18.4410 h4         1 NT6       0.036100
     32 H13         -2.9670   -29.1310    21.5730 hc         1 NT6       0.050533
     33 H14         -2.9130   -29.1150    23.3320 hc         1 NT6       0.050533
     34 H15         -3.1990   -31.4210    22.4860 hc         1 NT6       0.054033
     35 H16         -1.9280   -31.0730    24.5980 hc         1 NT6       0.043700
     36 H17         -1.3040   -32.4640    23.7220 hc         1 NT6       0.043700
     37 H18          0.5530   -31.0100    24.5220 hc         1 NT6       0.054033
     38 H3           0.8080   -28.7210    23.6080 hc         1 NT6       0.050533
     39 O           -1.5820   -26.7270    23.5100 o          1 NT6      -0.576100
@<TRIPOS>BOND
     1     1     2 ar  
     2     1     4 ar  
     3     1    20 1   
     4     2    11 ar  
     5     2    21 1   
     6     3    11 1   
     7     3    12 1   
     8     3    22 1   
     9     4    10 ar  
    10     4    19 1   
    11     5    13 1   
    12     5    17 1   
    13     5    23 1   
    14     5    38 1   
    15     6     7 1   
    16     6    17 1   
    17     6    24 1   
    18     6    25 1   
    19     7     8 1   
    20     7     9 1   
    21     7    26 1   
    22     8    15 1   
    23     8    27 1   
    24     8    28 1   
    25     9    13 1   
    26     9    29 1   
    27     9    30 1   
    28    10    18 ar  
    29    10    31 1   
    30    11    18 ar  
    31    12    13 1   
    32    12    39 2   
    33    13    14 1   
    34    14    15 1   
    35    14    32 1   
    36    14    33 1   
    37    15    16 1   
    38    15    34 1   
    39    16    17 1   
    40    16    35 1   
    41    16    36 1   
    42    17    37 1   
@<TRIPOS>SUBSTRUCTURE
     1 NT6         1 TEMP              0 ****  ****    0 ROOT
