@<TRIPOS>MOLECULE
NT7
   38    39     1     0     0
SMALL
abcg2


@<TRIPOS>ATOM
      1 N1           0.8280     0.2910     0.5550 ns         1 NT7      -0.174000
      2 C4           3.4650    -2.2330     0.0370 ca         1 NT7      -0.097000
      3 C5           2.2230    -1.6730     0.2810 ca         1 NT7      -0.102000
      4 C6           2.0850    -0.2900     0.2850 ca         1 NT7      -0.036000
      5 C7          -0.3120     0.0240    -0.1290 c          1 NT7       0.599100
      6 C8          -1.4730     0.9210     0.2770 c3         1 NT7       0.088800
      7 C10         -4.5100    -1.2360     0.0810 c6         1 NT7       0.153600
      8 C13          3.1800     0.5500     0.0500 ca         1 NT7      -0.099300
      9 C1           5.6540     0.8230    -0.4140 c3         1 NT7      -0.047800
     10 C11         -5.0630     0.8780    -0.7070 c6         1 NT7       0.153600
     11 C12         -3.7650     1.4480    -0.1710 c6         1 NT7       0.128300
     12 C14          2.9820     2.0390     0.0440 c3         1 NT7      -0.047800
     13 C2           4.4390    -0.0270    -0.1720 ca         1 NT7      -0.060300
     14 C3           4.5610    -1.4130    -0.1820 ca         1 NT7      -0.117000
     15 C9          -3.1930    -0.7190     0.6260 c6         1 NT7       0.128300
     16 N2          -2.7430     0.4160    -0.1610 n3         1 NT7      -0.695600
     17 O1          -0.3900    -0.8170    -1.0020 o          1 NT7      -0.554100
     18 O2          -5.4960    -0.2280     0.0550 os         1 NT7      -0.452000
     19 H1           0.8050     1.0540     1.2150 hn         1 NT7       0.149000
     20 H2           3.5800    -3.3090     0.0330 ha         1 NT7       0.116000
     21 H3           1.3690    -2.3050     0.4850 ha         1 NT7       0.128000
     22 H4          -1.4330     1.1030     1.3650 h1         1 NT7       0.045700
     23 H5          -1.2940     1.8930    -0.1950 h1         1 NT7       0.045700
     24 H7          -4.8850    -2.0440     0.7120 h1         1 NT7       0.054200
     25 H8           5.8280     1.5290     0.4000 hc         1 NT7       0.042033
     26 H9           6.5460     0.2050    -0.5090 hc         1 NT7       0.042033
     27 H10          5.5640     1.4090    -1.3310 hc         1 NT7       0.042033
     28 H11         -5.8500     1.6330    -0.6660 h1         1 NT7       0.054200
     29 H12         -4.9260     0.5890    -1.7590 h1         1 NT7       0.054200
     30 H13         -3.4450     2.2700    -0.8170 h1         1 NT7       0.041950
     31 H14         -3.9360     1.8710     0.8330 h1         1 NT7       0.041950
     32 H15          2.8450     2.4330     1.0550 hc         1 NT7       0.040700
     33 H16          3.8290     2.5650    -0.3890 hc         1 NT7       0.040700
     34 H17          2.0970     2.3200    -0.5290 hc         1 NT7       0.040700
     35 H18          5.5330    -1.8570    -0.3630 ha         1 NT7       0.112000
     36 H19         -3.3140    -0.4480     1.6900 h1         1 NT7       0.041950
     37 H20         -2.4580    -1.5230     0.5790 h1         1 NT7       0.041950
     38 H6          -4.3500    -1.6420    -0.9280 h1         1 NT7       0.054200
@<TRIPOS>BOND
     1     1     4 1   
     2     1     5 1   
     3     1    19 1   
     4     2     3 ar  
     5     2    14 ar  
     6     2    20 1   
     7     3     4 ar  
     8     3    21 1   
     9     4     8 ar  
    10     5     6 1   
    11     5    17 2   
    12     6    16 1   
    13     6    22 1   
    14     6    23 1   
    15     7    15 1   
    16     7    18 1   
    17     7    24 1   
    18     7    38 1   
    19     8    12 1   
    20     8    13 ar  
    21     9    13 1   
    22     9    25 1   
    23     9    26 1   
    24     9    27 1   
    25    10    11 1   
    26    10    18 1   
    27    10    28 1   
    28    10    29 1   
    29    11    16 1   
    30    11    30 1   
    31    11    31 1   
    32    12    32 1   
    33    12    33 1   
    34    12    34 1   
    35    13    14 ar  
    36    14    35 1   
    37    15    16 1   
    38    15    36 1   
    39    15    37 1   
@<TRIPOS>SUBSTRUCTURE
     1 NT7         1 TEMP              0 ****  ****    0 ROOT
