@<TRIPOS>MOLECULE
NT7
   38    39     1     0     0
SMALL
No Charge or Current Charge


@<TRIPOS>ATOM
      1 N1           0.8560     0.3200    -0.2630 ns         1 NT7      -0.174000
      2 C4           3.6120    -2.2290    -0.3740 ca         1 NT7      -0.097000
      3 C5           2.3320    -1.6620    -0.4310 ca         1 NT7      -0.102000
      4 C6           2.1510    -0.2760    -0.2360 ca         1 NT7      -0.036000
      5 C7          -0.3680    -0.1210    -0.7550 c          1 NT7       0.599100
      6 C8          -1.5360     0.8800    -0.4940 c3         1 NT7       0.088800
      7 C10         -4.5960    -1.1640     0.7570 c6         1 NT7       0.153600
      8 C13          3.2790     0.5460     0.0310 ca         1 NT7      -0.099300
      9 C1           5.8190     0.7870     0.4120 c3         1 NT7      -0.047800
     10 C11         -5.4110     0.8510    -0.2850 c6         1 NT7       0.153600
     11 C12         -3.9660     1.4310    -0.3510 c6         1 NT7       0.128300
     12 C14          3.0850     2.0550     0.2510 c3         1 NT7      -0.047800
     13 C2           4.5720    -0.0390     0.1030 ca         1 NT7      -0.060300
     14 C3           4.7240    -1.4220    -0.1080 ca         1 NT7      -0.117000
     15 C9          -3.1340    -0.6280     0.7130 c6         1 NT7       0.128300
     16 N2          -2.9360     0.3480    -0.4070 n3         1 NT7      -0.695600
     17 O1          -0.5200    -1.1830    -1.3550 o          1 NT7      -0.554100
     18 O2          -5.5350    -0.0640     0.8300 os         1 NT7      -0.452000
     19 H1           0.8220     1.2350     0.1670 hn         1 NT7       0.149000
     20 H2           3.7400    -3.2990    -0.5250 ha         1 NT7       0.116000
     21 H3           1.4890    -2.3230    -0.6100 ha         1 NT7       0.128000
     22 H4          -1.2980     1.4140     0.4360 h1         1 NT7       0.045700
     23 H5          -1.4750     1.6240    -1.2990 h1         1 NT7       0.045700
     24 H7          -4.7310    -1.8130     1.6330 h1         1 NT7       0.054200
     25 H8           5.6870     1.3780     1.3270 hc         1 NT7       0.042033
     26 H9           6.7010     0.1540     0.5640 hc         1 NT7       0.042033
     27 H10          6.0500     1.4750    -0.4090 hc         1 NT7       0.042033
     28 H11         -6.1370     1.6670    -0.1650 h1         1 NT7       0.054200
     29 H12         -5.6440     0.3200    -1.2190 h1         1 NT7       0.054200
     30 H13         -3.8870     2.0800    -1.2360 h1         1 NT7       0.041950
     31 H14         -3.8030     2.0680     0.5310 h1         1 NT7       0.041950
     32 H15          2.7610     2.2590     1.2780 hc         1 NT7       0.040700
     33 H16          3.9960     2.6350     0.0700 hc         1 NT7       0.040700
     34 H17          2.3310     2.4710    -0.4280 hc         1 NT7       0.040700
     35 H18          5.7100    -1.8790    -0.0590 ha         1 NT7       0.112000
     36 H19         -2.9070    -0.1520     1.6780 h1         1 NT7       0.041950
     37 H20         -2.4520    -1.4840     0.6070 h1         1 NT7       0.041950
     38 H6          -4.8040    -1.7590    -0.1450 h1         1 NT7       0.054200
@<TRIPOS>BOND
     1     1     4 1   
     2     1     5 1   
     3     1    19 1   
     4     2     3 ar  
     5     2    14 ar  
     6     2    20 1   
     7     3     4 ar  
     8     3    21 1   
     9     4     8 ar  
    10     5     6 1   
    11     5    17 2   
    12     6    16 1   
    13     6    22 1   
    14     6    23 1   
    15     7    15 1   
    16     7    18 1   
    17     7    24 1   
    18     7    38 1   
    19     8    12 1   
    20     8    13 ar  
    21     9    13 1   
    22     9    25 1   
    23     9    26 1   
    24     9    27 1   
    25    10    11 1   
    26    10    18 1   
    27    10    28 1   
    28    10    29 1   
    29    11    16 1   
    30    11    30 1   
    31    11    31 1   
    32    12    32 1   
    33    12    33 1   
    34    12    34 1   
    35    13    14 ar  
    36    14    35 1   
    37    15    16 1   
    38    15    36 1   
    39    15    37 1   
@<TRIPOS>SUBSTRUCTURE
     1 NT7         1 TEMP              0 ****  ****    0 ROOT
