@<TRIPOS>MOLECULE
NT8
   40    39     1     0     0
SMALL
bcc


@<TRIPOS>ATOM
      1 N01         -2.1720    -0.0910     1.9470 n8         1 NT8      -0.816800
      2 C02         -2.2010    -0.1650     0.4760 c3         1 NT8      -0.120200
      3 C03         -0.8570    -0.6630    -0.0950 c3         1 NT8      -0.034400
      4 C04          0.4040     0.0790     0.3360 c3         1 NT8      -0.080400
      5 C05          1.6680    -0.5030    -0.2840 c3         1 NT8      -0.068400
      6 C06          2.9500     0.1200     0.2550 c3         1 NT8      -0.077400
      7 C07          4.2200    -0.4750    -0.3410 c3         1 NT8      -0.076400
      8 C08          5.4950     0.1140     0.2480 c3         1 NT8      -0.076400
      9 C09          6.7680    -0.4930    -0.3280 c3         1 NT8      -0.076400
     10 C10          8.0390     0.0840     0.2810 c3         1 NT8      -0.077400
     11 C11          9.3080    -0.5300    -0.2950 c3         1 NT8      -0.084100
     12 P12         -3.4810    -1.4700     0.0590 p5         1 NT8       1.211200
     13 O13         -4.8410    -1.0620     0.6410 o          1 NT8      -0.972500
     14 O14         -3.4920    -1.6150    -1.4730 o          1 NT8      -0.972500
     15 O15         -2.9380    -2.7430     0.7600 o          1 NT8      -0.972500
     16 P16         -2.5430     1.5670    -0.1630 p5         1 NT8       1.211200
     17 O17         -1.6730     2.4850     0.7330 o          1 NT8      -0.972500
     18 O18         -2.0960     1.5960    -1.6350 o          1 NT8      -0.972500
     19 O19         -4.0370     1.8800     0.0090 o          1 NT8      -0.972500
     20 H011        -1.8620    -0.9910     2.3010 hn         1 NT8       0.259800
     21 H012        -1.4740     0.5920     2.2180 hn         1 NT8       0.259800
     22 H032        -0.7360    -1.7160     0.1900 hc         1 NT8       0.021200
     23 H031        -0.9260    -0.6460    -1.1830 hc         1 NT8       0.021200
     24 H041         0.3120     1.1390     0.0970 hc         1 NT8       0.039200
     25 H042         0.5040     0.0260     1.4270 hc         1 NT8       0.039200
     26 H051         1.6960    -1.5850    -0.1050 hc         1 NT8       0.014200
     27 H052         1.6330    -0.3850    -1.3740 hc         1 NT8       0.014200
     28 H061         2.9350     1.2010     0.0780 hc         1 NT8       0.026700
     29 H062         2.9750    -0.0040     1.3440 hc         1 NT8       0.026700
     30 H071         4.2170    -1.5600    -0.1840 hc         1 NT8       0.024700
     31 H072         4.2180    -0.3300    -1.4280 hc         1 NT8       0.024700
     32 H081         5.5040     1.1980     0.0890 hc         1 NT8       0.029700
     33 H082         5.4880    -0.0290     1.3350 hc         1 NT8       0.029700
     34 H091         6.7530    -1.5780    -0.1750 hc         1 NT8       0.029700
     35 H092         6.7850    -0.3430    -1.4130 hc         1 NT8       0.029700
     36 H101         8.0540     1.1680     0.1280 hc         1 NT8       0.031700
     37 H102         8.0200    -0.0660     1.3650 hc         1 NT8       0.031700
     38 H112        10.2030    -0.0990     0.1570 hc         1 NT8       0.016700
     39 H111         9.3380    -1.6070    -0.1240 hc         1 NT8       0.016700
     40 H113         9.3710    -0.3680    -1.3730 hc         1 NT8       0.016700
@<TRIPOS>BOND
     1     1     2 1   
     2     1    20 1   
     3     1    21 1   
     4     2     3 1   
     5     2    12 1   
     6     2    16 1   
     7     3     4 1   
     8     3    22 1   
     9     3    23 1   
    10     4     5 1   
    11     4    24 1   
    12     4    25 1   
    13     5     6 1   
    14     5    26 1   
    15     5    27 1   
    16     6     7 1   
    17     6    28 1   
    18     6    29 1   
    19     7     8 1   
    20     7    30 1   
    21     7    31 1   
    22     8     9 1   
    23     8    32 1   
    24     8    33 1   
    25     9    10 1   
    26     9    34 1   
    27     9    35 1   
    28    10    11 1   
    29    10    36 1   
    30    10    37 1   
    31    11    38 1   
    32    11    39 1   
    33    11    40 1   
    34    12    13 1   
    35    12    14 1   
    36    12    15 1   
    37    16    17 1   
    38    16    18 1   
    39    16    19 1   
@<TRIPOS>SUBSTRUCTURE
     1 NT8         1 TEMP              0 ****  ****    0 ROOT
