@<TRIPOS>MOLECULE
NT8
   40    39     1     0     0
SMALL
No Charge or Current Charge


@<TRIPOS>ATOM
      1 N01         -2.1740    -0.2680     2.1570 n8         1 NT8      -0.927200
      2 C02         -2.2630    -0.1700     0.5960 c3         1 NT8      -0.435800
      3 C03         -0.8970    -0.7270     0.0480 c3         1 NT8      -0.034400
      4 C04          0.4020     0.0170     0.4780 c3         1 NT8      -0.080400
      5 C05          1.6870    -0.6490    -0.0670 c3         1 NT8      -0.068400
      6 C06          2.9800     0.0840     0.3560 c3         1 NT8      -0.077400
      7 C07          4.2610    -0.5860    -0.1880 c3         1 NT8      -0.076400
      8 C08          5.5530     0.1460     0.2360 c3         1 NT8      -0.076400
      9 C09          6.8340    -0.5240    -0.3080 c3         1 NT8      -0.076400
     10 C10          8.1270     0.2080     0.1160 c3         1 NT8      -0.077400
     11 C11          9.4050    -0.4600    -0.4260 c3         1 NT8      -0.084100
     12 P12         -3.6230    -1.1670    -0.2770 p5         1 NT8       1.369000
     13 O13         -4.9620    -0.9360     0.3500 o          1 NT8      -0.972500
     14 O14         -3.6980    -0.9880    -1.7580 o          1 NT8      -0.972500
     15 O15         -3.3160    -2.6100    -0.0210 o          1 NT8      -0.972500
     16 P16         -2.6270     1.5210    -0.1950 p5         1 NT8       1.369000
     17 O17         -1.8850     2.5300     0.6260 o          1 NT8      -0.972500
     18 O18         -2.0830     1.6370    -1.5830 o          1 NT8      -0.972500
     19 O19         -4.0640     1.9300    -0.1640 o          1 NT8      -0.972500
     20 H011        -1.9320    -1.2260     2.4280 hn         1 NT8       0.315000
     21 H012        -1.3920     0.3080     2.4850 hn         1 NT8       0.315000
     22 H032        -0.7910    -1.7730     0.3620 hc         1 NT8       0.021200
     23 H031        -0.9260    -0.7540    -1.0480 hc         1 NT8       0.021200
     24 H041         0.3710     1.0520     0.1200 hc         1 NT8       0.039200
     25 H042         0.4660     0.0570     1.5720 hc         1 NT8       0.039200
     26 H051         1.7320    -1.6870     0.2860 hc         1 NT8       0.014200
     27 H052         1.6370    -0.6850    -1.1620 hc         1 NT8       0.014200
     28 H061         2.9380     1.1210     0.0020 hc         1 NT8       0.026700
     29 H062         3.0310     0.1200     1.4510 hc         1 NT8       0.026700
     30 H071         4.3030    -1.6240     0.1660 hc         1 NT8       0.024700
     31 H072         4.2110    -0.6230    -1.2830 hc         1 NT8       0.024700
     32 H081         5.5120     1.1840    -0.1180 hc         1 NT8       0.029700
     33 H082         5.6040     0.1830     1.3310 hc         1 NT8       0.029700
     34 H091         6.8760    -1.5620     0.0460 hc         1 NT8       0.029700
     35 H092         6.7850    -0.5610    -1.4030 hc         1 NT8       0.029700
     36 H101         8.0900     1.2460    -0.2380 hc         1 NT8       0.031700
     37 H102         8.1810     0.2450     1.2110 hc         1 NT8       0.031700
     38 H112        10.2930     0.0940    -0.0990 hc         1 NT8       0.016700
     39 H111         9.4890    -1.4910    -0.0600 hc         1 NT8       0.016700
     40 H113         9.3970    -0.4810    -1.5220 hc         1 NT8       0.016700
@<TRIPOS>BOND
     1     1     2 1   
     2     1    20 1   
     3     1    21 1   
     4     2     3 1   
     5     2    12 1   
     6     2    16 1   
     7     3     4 1   
     8     3    22 1   
     9     3    23 1   
    10     4     5 1   
    11     4    24 1   
    12     4    25 1   
    13     5     6 1   
    14     5    26 1   
    15     5    27 1   
    16     6     7 1   
    17     6    28 1   
    18     6    29 1   
    19     7     8 1   
    20     7    30 1   
    21     7    31 1   
    22     8     9 1   
    23     8    32 1   
    24     8    33 1   
    25     9    10 1   
    26     9    34 1   
    27     9    35 1   
    28    10    11 1   
    29    10    36 1   
    30    10    37 1   
    31    11    38 1   
    32    11    39 1   
    33    11    40 1   
    34    12    13 1   
    35    12    14 1   
    36    12    15 1   
    37    16    17 1   
    38    16    18 1   
    39    16    19 1   
@<TRIPOS>SUBSTRUCTURE
     1 NT8         1 TEMP              0 ****  ****    0 ROOT
