@<TRIPOS>MOLECULE
NT9
   27    28     1     0     0
SMALL
abcg2


@<TRIPOS>ATOM
      1 C10         17.5840   -15.4520     0.5020 cc         1 NT9      -0.131000
      2 C14         16.4570   -11.4420     4.5650 ca         1 NT9      -0.094000
      3 C13         16.8670   -12.3720     3.6230 ca         1 NT9      -0.104000
      4 C11         16.9010   -16.5360     0.9760 cd         1 NT9      -0.236000
      5 C01         15.3040    -9.7550     8.5560 c3         1 NT9       0.142100
      6 C04         15.2750   -11.6170     5.2870 ca         1 NT9      -0.086300
      7 C05         14.5140   -12.7560     5.0330 ca         1 NT9      -0.094000
      8 C06         14.9140   -13.6890     4.0840 ca         1 NT9      -0.104000
      9 C07         16.0980   -13.5160     3.3600 ca         1 NT9      -0.004000
     10 C08         16.5330   -14.4850     2.3520 cd         1 NT9      -0.147000
     11 C09         17.3760   -14.2860     1.2850 cc         1 NT9      -0.127000
     12 N02         15.7200   -10.6860     7.5110 n7         1 NT9      -0.858400
     13 S12         15.9980   -16.1400     2.3850 ss         1 NT9       0.185000
     14 H1          18.2100   -15.4820    -0.3790 ha         1 NT9       0.134000
     15 H2          17.0690   -10.5670     4.7510 ha         1 NT9       0.116000
     16 H3          17.7970   -12.2170     3.0930 ha         1 NT9       0.115500
     17 H4          16.8760   -17.5390     0.5820 h4         1 NT9       0.150000
     18 H5          15.9350    -9.8870     9.4360 h1         1 NT9       0.030700
     19 H6          15.4280    -8.7300     8.2000 h1         1 NT9       0.030700
     20 H7          14.2540    -9.8800     8.8600 h1         1 NT9       0.030700
     21 H8          14.9370    -9.6020     5.9250 h1         1 NT9       0.037200
     22 H9          13.7960   -10.7750     6.5830 h1         1 NT9       0.037200
     23 H10         13.5900   -12.9120     5.5780 ha         1 NT9       0.116000
     24 H11         14.2870   -14.5520     3.8940 ha         1 NT9       0.115500
     25 H12         17.8190   -13.3270     1.0570 ha         1 NT9       0.134000
     26 H13         15.6890   -11.6330     7.8760 hn         1 NT9       0.409000
     27 C03         14.8550   -10.6160     6.3290 c3         1 NT9       0.200100
@<TRIPOS>BOND
     1     1     4 2   
     2     1    11 1   
     3     1    14 1   
     4     2     3 ar  
     5     2     6 ar  
     6     2    15 1   
     7     3     9 ar  
     8     3    16 1   
     9     4    13 1   
    10     4    17 1   
    11     5    12 1   
    12     5    18 1   
    13     5    19 1   
    14     5    20 1   
    15     6     7 ar  
    16     6    27 1   
    17     7     8 ar  
    18     7    23 1   
    19     8     9 ar  
    20     8    24 1   
    21     9    10 1   
    22    10    11 2   
    23    10    13 1   
    24    11    25 1   
    25    12    26 1   
    26    12    27 1   
    27    21    27 1   
    28    22    27 1   
@<TRIPOS>SUBSTRUCTURE
     1 NT9         1 TEMP              0 ****  ****    0 ROOT
