@<TRIPOS>MOLECULE
NT9
   27    28     1     0     0
SMALL
No Charge or Current Charge


@<TRIPOS>ATOM
      1 C10         17.6830   -15.5260     0.5740 cc         1 NT9      -0.131000
      2 C14         16.3740   -11.3260     4.4170 ca         1 NT9      -0.094000
      3 C13         16.7680   -12.2740     3.4570 ca         1 NT9      -0.104000
      4 C11         16.7710   -16.5180     0.8130 cd         1 NT9      -0.236000
      5 C01         15.3000    -9.7610     8.6260 c3         1 NT9       0.142100
      6 C04         15.2890   -11.5860     5.2730 ca         1 NT9      -0.086300
      7 C05         14.6040   -12.8090     5.1560 ca         1 NT9      -0.094000
      8 C06         14.9980   -13.7580     4.1960 ca         1 NT9      -0.104000
      9 C07         16.0870   -13.5050     3.3310 ca         1 NT9      -0.004000
     10 C08         16.5020   -14.5040     2.3190 cd         1 NT9      -0.147000
     11 C09         17.5350   -14.3970     1.4160 cc         1 NT9      -0.127000
     12 N02         15.6610   -10.6900     7.5380 n7         1 NT9      -0.858400
     13 S12         15.6710   -16.0690     2.1270 ss         1 NT9       0.185000
     14 H1          18.4570   -15.5820    -0.1880 ha         1 NT9       0.134000
     15 H2          16.9150   -10.3850     4.4970 ha         1 NT9       0.116000
     16 H3          17.6110   -12.0370     2.8150 ha         1 NT9       0.115500
     17 H4          16.6690   -17.4750     0.3150 h4         1 NT9       0.150000
     18 H5          15.9440    -9.9220     9.5010 h1         1 NT9       0.030700
     19 H6          15.4170    -8.7170     8.3050 h1         1 NT9       0.030700
     20 H7          14.2570    -9.9090     8.9390 h1         1 NT9       0.030700
     21 H8          14.9770    -9.5480     5.8820 h1         1 NT9       0.037200
     22 H9          13.7910   -10.6910     6.5290 h1         1 NT9       0.037200
     23 H10         13.7630   -13.0260     5.8100 ha         1 NT9       0.116000
     24 H11         14.4440   -14.6890     4.1370 ha         1 NT9       0.115500
     25 H12         18.1950   -13.5410     1.3280 ha         1 NT9       0.134000
     26 H13         15.5420   -11.6510     7.8820 hn         1 NT9       0.409000
     27 C03         14.8590   -10.5550     6.3080 c3         1 NT9       0.200100
@<TRIPOS>BOND
     1     1     4 2   
     2     1    11 1   
     3     1    14 1   
     4     2     3 ar  
     5     2     6 ar  
     6     2    15 1   
     7     3     9 ar  
     8     3    16 1   
     9     4    13 1   
    10     4    17 1   
    11     5    12 1   
    12     5    18 1   
    13     5    19 1   
    14     5    20 1   
    15     6     7 ar  
    16     6    27 1   
    17     7     8 ar  
    18     7    23 1   
    19     8     9 ar  
    20     8    24 1   
    21     9    10 1   
    22    10    11 2   
    23    10    13 1   
    24    11    25 1   
    25    12    26 1   
    26    12    27 1   
    27    21    27 1   
    28    22    27 1   
@<TRIPOS>SUBSTRUCTURE
     1 NT9         1 TEMP              0 ****  ****    0 ROOT
