@<TRIPOS>MOLECULE
NTA
   19    18     1     0     0
SMALL
bcc


@<TRIPOS>ATOM
      1 N1           0.0130    -0.1680    -0.0240 n3         1 NTA      -0.626600
      2 C6           1.3920    -0.5830     0.0970 c3         1 NTA       0.055467
      3 C10         -0.5360    -0.5800    -1.2940 c3         1 NTA       0.055467
      4 C2          -0.7790    -0.6710     1.0740 c3         1 NTA       0.055467
      5 C7           2.1930     0.0320     1.2590 c          1 NTA       0.925933
      6 O8           3.2870    -0.5280     1.4950 o          1 NTA      -0.882133
      7 O9           1.7350     1.0300     1.8430 o          1 NTA      -0.882133
      8 C3          -2.1810    -0.0580     1.2480 c          1 NTA       0.925933
      9 C11          0.0080     0.1380    -2.5430 c          1 NTA       0.925933
     10 O12         -0.3090    -0.3890    -3.6330 o          1 NTA      -0.882133
     11 O13          0.6700     1.1820    -2.3990 o          1 NTA      -0.882133
     12 O4          -2.9320    -0.6860     2.0290 o          1 NTA      -0.882133
     13 O5          -2.4610     0.9930     0.6450 o          1 NTA      -0.882133
     14 H61          1.9150    -0.2980    -0.8210 h1         1 NTA      -0.004467
     15 H62          1.4900    -1.6830     0.1650 h1         1 NTA      -0.004467
     16 H101        -0.4260    -1.6710    -1.4490 h1         1 NTA      -0.004467
     17 H102        -1.6130    -0.3960    -1.2820 h1         1 NTA      -0.004467
     18 H21         -0.8890    -1.7720     1.0380 h1         1 NTA      -0.004467
     19 H22         -0.2420    -0.4630     2.0040 h1         1 NTA      -0.004467
@<TRIPOS>BOND
     1     1     2 1   
     2     1     3 1   
     3     1     4 1   
     4     2     5 1   
     5     2    14 1   
     6     2    15 1   
     7     3     9 1   
     8     3    16 1   
     9     3    17 1   
    10     4     8 1   
    11     4    18 1   
    12     4    19 1   
    13     5     6 1   
    14     5     7 1   
    15     8    12 1   
    16     8    13 1   
    17     9    10 1   
    18     9    11 1   
@<TRIPOS>SUBSTRUCTURE
     1 NTA         1 TEMP              0 ****  ****    0 ROOT
