@<TRIPOS>MOLECULE
NTA
   19    18     1     0     0
SMALL
No Charge or Current Charge


@<TRIPOS>ATOM
      1 N1           0.0120    -0.1130    -0.0200 n3         1 NTA      -0.626600
      2 C6           1.4650    -0.4960     0.0280 c3         1 NTA       0.055467
      3 C10         -0.6450    -0.4960    -1.3170 c3         1 NTA       0.055467
      4 C2          -0.7530    -0.5960     1.1810 c3         1 NTA       0.055467
      5 C7           2.3270    -0.0490     1.2720 c          1 NTA       0.715333
      6 O8           2.6160    -0.8860     2.1200 o          1 NTA      -0.776833
      7 O9           2.7170     1.1120     1.3350 o          1 NTA      -0.776833
      8 C3          -2.2630    -0.1660     1.3420 c          1 NTA       0.715333
      9 C11         -0.0330     0.0440    -2.6670 c          1 NTA       0.715333
     10 O12          0.6150    -0.7230    -3.3690 o          1 NTA      -0.776833
     11 O13         -0.2550     1.2050    -2.9940 o          1 NTA      -0.776833
     12 O4          -3.1390    -0.9900     1.1030 o          1 NTA      -0.776833
     13 O5          -2.5170     0.9650     1.7400 o          1 NTA      -0.776833
     14 H61          1.9700    -0.0870    -0.8570 h1         1 NTA      -0.004467
     15 H62          1.5450    -1.5890    -0.0520 h1         1 NTA      -0.004467
     16 H101        -0.6770    -1.5930    -1.3860 h1         1 NTA      -0.004467
     17 H102        -1.6910    -0.1620    -1.2990 h1         1 NTA      -0.004467
     18 H21         -0.7200    -1.6940     1.2030 h1         1 NTA      -0.004467
     19 H22         -0.2400    -0.2570     2.0910 h1         1 NTA      -0.004467
@<TRIPOS>BOND
     1     1     2 1   
     2     1     3 1   
     3     1     4 1   
     4     2     5 1   
     5     2    14 1   
     6     2    15 1   
     7     3     9 1   
     8     3    16 1   
     9     3    17 1   
    10     4     8 1   
    11     4    18 1   
    12     4    19 1   
    13     5     6 1   
    14     5     7 1   
    15     8    12 1   
    16     8    13 1   
    17     9    10 1   
    18     9    11 1   
@<TRIPOS>SUBSTRUCTURE
     1 NTA         1 TEMP              0 ****  ****    0 ROOT
