@<TRIPOS>MOLECULE
NTB
   16    15     1     0     0
SMALL
No Charge or Current Charge


@<TRIPOS>ATOM
      1 N            0.8860    -0.1290    -1.1350 n8         1 NTB      -0.990200
      2 C            0.0270    -0.0660     0.0530 c3         1 NTB       0.169200
      3 C1          -0.8310     1.2170    -0.0320 c3         1 NTB      -0.094767
      4 C2           0.9300    -0.0310     1.3080 c3         1 NTB      -0.094767
      5 C3          -0.8760    -1.3210     0.0720 c3         1 NTB      -0.094767
      6 HN1          0.7490     0.7240    -1.6860 hn         1 NTB       0.389000
      7 HN2          1.8660    -0.0670    -0.8360 hn         1 NTB       0.389000
      8 H11         -0.2010     2.1140    -0.0630 hc         1 NTB       0.036478
      9 H12         -1.4620     1.2120    -0.9300 hc         1 NTB       0.036478
     10 H13         -1.4900     1.2990     0.8410 hc         1 NTB       0.036478
     11 H21          0.3220     0.0150     2.2200 hc         1 NTB       0.036478
     12 H22          1.5590    -0.9280     1.3680 hc         1 NTB       0.036478
     13 H23          1.5880     0.8470     1.2980 hc         1 NTB       0.036478
     14 H31         -1.5070    -1.3670    -0.8250 hc         1 NTB       0.036478
     15 H32         -0.2760    -2.2390     0.1120 hc         1 NTB       0.036478
     16 H33         -1.5350    -1.3110     0.9480 hc         1 NTB       0.036478
@<TRIPOS>BOND
     1     1     2 1   
     2     1     6 1   
     3     1     7 1   
     4     2     3 1   
     5     2     4 1   
     6     2     5 1   
     7     3     8 1   
     8     3     9 1   
     9     3    10 1   
    10     4    11 1   
    11     4    12 1   
    12     4    13 1   
    13     5    14 1   
    14     5    15 1   
    15     5    16 1   
@<TRIPOS>SUBSTRUCTURE
     1 NTB         1 TEMP              0 ****  ****    0 ROOT
