@<TRIPOS>MOLECULE
NTB
   16    15     1     0     0
SMALL
bcc


@<TRIPOS>ATOM
      1 N            0.8100    -0.0060    -1.2030 n8         1 NTB      -0.879800
      2 C            0.0200    -0.0050     0.0310 c3         1 NTB       0.169200
      3 C1          -0.9240     1.1940    -0.0150 c3         1 NTB      -0.094767
      4 C2           0.9010     0.0840     1.2820 c3         1 NTB      -0.094767
      5 C3          -0.7950    -1.2960     0.0680 c3         1 NTB      -0.094767
      6 HN1          1.3820     0.8320    -1.2330 hn         1 NTB       0.333800
      7 HN2          1.4670    -0.7780    -1.1770 hn         1 NTB       0.333800
      8 H11         -0.3670     2.1330    -0.0580 hc         1 NTB       0.036478
      9 H12         -1.5720     1.1450    -0.8920 hc         1 NTB       0.036478
     10 H13         -1.5560     1.2250     0.8730 hc         1 NTB       0.036478
     11 H21          0.3090     0.0830     2.2000 hc         1 NTB       0.036478
     12 H22          1.5920    -0.7610     1.3310 hc         1 NTB       0.036478
     13 H23          1.4950     1.0010     1.2720 hc         1 NTB       0.036478
     14 H31         -1.4460    -1.3710    -0.8060 hc         1 NTB       0.036478
     15 H32         -0.1460    -2.1750     0.0790 hc         1 NTB       0.036478
     16 H33         -1.4210    -1.3370     0.9610 hc         1 NTB       0.036478
@<TRIPOS>BOND
     1     1     2 1   
     2     1     6 1   
     3     1     7 1   
     4     2     3 1   
     5     2     4 1   
     6     2     5 1   
     7     3     8 1   
     8     3     9 1   
     9     3    10 1   
    10     4    11 1   
    11     4    12 1   
    12     4    13 1   
    13     5    14 1   
    14     5    15 1   
    15     5    16 1   
@<TRIPOS>SUBSTRUCTURE
     1 NTB         1 TEMP              0 ****  ****    0 ROOT
