@<TRIPOS>MOLECULE
NTC
   18    17     1     0     0
SMALL
No Charge or Current Charge


@<TRIPOS>ATOM
      1 N1          -2.5920     0.5810    -0.1040 no         1 NTC       0.605000
      2 O1          -3.1690     1.5890     0.3230 o          1 NTC      -0.445000
      3 O2          -3.1080    -0.5430    -0.1420 o          1 NTC      -0.445000
      4 C2          -1.3110     0.7970    -0.9180 c3         1 NTC      -0.070400
      5 C3          -0.0230     0.4300    -0.1270 c3         1 NTC       0.062000
      6 O7           0.0470     1.3210     1.0170 oh         1 NTC      -0.604000
      7 C4           1.2310     0.7460    -0.9960 c3         1 NTC      -0.209400
      8 C5           2.5170     0.4040    -0.2240 c          1 NTC       0.724000
      9 O3           3.0300    -0.6890    -0.4020 o          1 NTC      -0.741000
     10 O4           2.9210     1.2180     0.5930 o          1 NTC      -0.741000
     11 C6          -0.0460    -1.1160     0.2730 c          1 NTC       0.775000
     12 O5           0.0730    -1.4260     1.4550 o          1 NTC      -0.718500
     13 O6          -0.2340    -1.9470    -0.6080 o          1 NTC      -0.718500
     14 H21         -1.4100     0.1780    -1.8170 h1         1 NTC       0.062700
     15 H22         -1.3030     1.8530    -1.2120 h1         1 NTC       0.062700
     16 HO7          1.0030     1.3920     1.2430 ho         1 NTC       0.386000
     17 H41          1.1550     0.1420    -1.9100 hc         1 NTC       0.007700
     18 H42          1.1900     1.8250    -1.1940 hc         1 NTC       0.007700
@<TRIPOS>BOND
     1     1     2 1   
     2     1     3 1   
     3     1     4 1   
     4     4     5 1   
     5     4    14 1   
     6     4    15 1   
     7     5     6 1   
     8     5     7 1   
     9     5    11 1   
    10     6    16 1   
    11     7     8 1   
    12     7    17 1   
    13     7    18 1   
    14     8     9 1   
    15     8    10 1   
    16    11    12 1   
    17    11    13 1   
@<TRIPOS>SUBSTRUCTURE
     1 NTC         1 TEMP              0 ****  ****    0 ROOT
