@<TRIPOS>MOLECULE
NTC
   18    17     1     0     0
SMALL
bcc


@<TRIPOS>ATOM
      1 N1          -2.4810     0.5260    -0.1600 no         1 NTC       0.254300
      2 O1          -2.9300     1.3550     0.5960 o          1 NTC      -0.255000
      3 O2          -2.9970    -0.5480    -0.3630 o          1 NTC      -0.255000
      4 C2          -1.2140     0.8350    -0.8600 c3         1 NTC      -0.099700
      5 C3          -0.0020     0.3390    -0.0350 c3         1 NTC       0.038800
      6 O7          -0.0480     0.9030     1.2500 oh         1 NTC      -0.541800
      7 C4           1.2320     0.7950    -0.8050 c3         1 NTC      -0.209400
      8 C5           2.5880     0.3940    -0.1980 c          1 NTC       0.934600
      9 O3           2.6160    -0.5710     0.5870 o          1 NTC      -0.846300
     10 O4           3.5720     1.0340    -0.6240 o          1 NTC      -0.846300
     11 C6          -0.0930    -1.2100     0.0750 c          1 NTC       0.985600
     12 O5          -0.3930    -1.6900     1.1770 o          1 NTC      -0.823800
     13 O6           0.0750    -1.8180    -0.9990 o          1 NTC      -0.823800
     14 H21         -1.2470     0.3500    -1.8310 h1         1 NTC       0.062700
     15 H22         -1.1810     1.9160    -0.9880 h1         1 NTC       0.062700
     16 HO7          0.0780     1.8540     1.1640 ho         1 NTC       0.347000
     17 H41          1.1880     0.4040    -1.8240 hc         1 NTC       0.007700
     18 H42          1.2080     1.8860    -0.9130 hc         1 NTC       0.007700
@<TRIPOS>BOND
     1     1     2 1   
     2     1     3 1   
     3     1     4 1   
     4     4     5 1   
     5     4    14 1   
     6     4    15 1   
     7     5     6 1   
     8     5     7 1   
     9     5    11 1   
    10     6    16 1   
    11     7     8 1   
    12     7    17 1   
    13     7    18 1   
    14     8     9 1   
    15     8    10 1   
    16    11    12 1   
    17    11    13 1   
@<TRIPOS>SUBSTRUCTURE
     1 NTC         1 TEMP              0 ****  ****    0 ROOT
