@<TRIPOS>MOLECULE
NTD
   33    34     1     0     0
SMALL
No Charge or Current Charge


@<TRIPOS>ATOM
      1 O1           4.2270     1.5780    -0.7790 o          1 NTD      -0.534600
      2 C5           3.8710     0.7280     0.0260 c          1 NTD       0.601300
      3 C2           4.9650    -0.0270     0.7880 c6         1 NTD      -0.174900
      4 C3           4.6210    -1.5010     1.0320 c6         1 NTD      -0.062400
      5 C4           3.3150    -1.5630     1.8320 c6         1 NTD      -0.174900
      6 C1           2.1440    -0.8270     1.1700 c          1 NTD       0.601300
      7 O5           1.0170    -1.2470     1.3820 o          1 NTD      -0.534600
      8 C6           2.4280     0.3520     0.2770 ce         1 NTD      -0.368400
      9 C7           1.3880     1.0480    -0.2990 cf         1 NTD       0.294900
     10 O7           1.6020     2.1290    -1.0640 oh         1 NTD      -0.462100
     11 C8          -0.0680     0.7870    -0.2020 ca         1 NTD      -0.042800
     12 C13         -0.8490     1.6580     0.5840 ca         1 NTD      -0.111000
     13 C12         -2.2310     1.4630     0.7260 ca         1 NTD      -0.022000
     14 C11         -2.8670     0.3830     0.0840 ca         1 NTD      -0.193300
     15 C14         -4.3770     0.1620     0.2270 c3         1 NTD       0.363300
     16 F2          -4.8820     0.7230     1.3490 f          1 NTD      -0.104667
     17 F3          -5.0510     0.6940    -0.8170 f          1 NTD      -0.104667
     18 F1          -4.6970    -1.1520     0.2760 f          1 NTD      -0.104667
     19 C10         -2.0980    -0.4870    -0.7170 ca         1 NTD      -0.001000
     20 C9          -0.7050    -0.2950    -0.8750 ca         1 NTD      -0.133200
     21 N            0.0570    -1.2550    -1.7370 no         1 NTD       0.699200
     22 ON2         -0.3710    -2.4130    -1.8290 o          1 NTD      -0.379000
     23 ON1          0.9960    -0.8200    -2.4150 o          1 NTD      -0.379000
     24 H21          5.9330     0.1020     0.2840 hc         1 NTD       0.069700
     25 H22          5.0430     0.4560     1.7710 hc         1 NTD       0.069700
     26 H31          4.5140    -2.0340     0.0770 hc         1 NTD       0.055200
     27 H32          5.4310    -1.9940     1.5880 hc         1 NTD       0.055200
     28 H41          3.0170    -2.5920     2.0740 hc         1 NTD       0.069700
     29 H42          3.4870    -1.0560     2.7900 hc         1 NTD       0.069700
     30 HO7          0.7260     2.4180    -1.3920 ho         1 NTD       0.482000
     31 H13         -0.3760     2.4910     1.1010 ha         1 NTD       0.141000
     32 H12         -2.8010     2.1580     1.3410 ha         1 NTD       0.147000
     33 H10         -2.5900    -1.3120    -1.2310 ha         1 NTD       0.170000
@<TRIPOS>BOND
     1     1     2 2   
     2     2     3 1   
     3     2     8 1   
     4     3     4 1   
     5     3    24 1   
     6     3    25 1   
     7     4     5 1   
     8     4    26 1   
     9     4    27 1   
    10     5     6 1   
    11     5    28 1   
    12     5    29 1   
    13     6     7 2   
    14     6     8 1   
    15     8     9 2   
    16     9    10 1   
    17     9    11 1   
    18    10    30 1   
    19    11    12 ar  
    20    11    20 ar  
    21    12    13 ar  
    22    12    31 1   
    23    13    14 ar  
    24    13    32 1   
    25    14    15 1   
    26    14    19 ar  
    27    15    16 1   
    28    15    17 1   
    29    15    18 1   
    30    19    20 ar  
    31    19    33 1   
    32    20    21 1   
    33    21    22 1   
    34    21    23 1   
@<TRIPOS>SUBSTRUCTURE
     1 NTD         1 TEMP              0 ****  ****    0 ROOT
