@<TRIPOS>MOLECULE
NTD
   33    34     1     0     0
SMALL
bcc


@<TRIPOS>ATOM
      1 O1           4.2100     1.4700    -0.8940 o          1 NTD      -0.534600
      2 C5           3.8540     0.6650    -0.0560 c          1 NTD       0.601300
      3 C2           4.8470     0.1070     0.9350 c6         1 NTD      -0.174900
      4 C3           4.5520    -1.3270     1.3400 c6         1 NTD      -0.062400
      5 C4           3.1370    -1.4350     1.8850 c6         1 NTD      -0.174900
      6 C1           2.1110    -0.9670     0.8890 c          1 NTD       0.601300
      7 O5           1.0440    -1.5420     0.7720 o          1 NTD      -0.534600
      8 C6           2.4530     0.2120     0.0720 ce         1 NTD      -0.368400
      9 C7           1.4400     0.8710    -0.5690 cf         1 NTD       0.294900
     10 O7           1.6650     1.9170    -1.3280 oh         1 NTD      -0.423100
     11 C8          -0.0060     0.6050    -0.3140 ca         1 NTD      -0.042800
     12 C13         -0.6080     1.3420     0.6920 ca         1 NTD      -0.129000
     13 C12         -1.9660     1.2200     0.9510 ca         1 NTD      -0.040000
     14 C11         -2.7390     0.3560     0.1930 ca         1 NTD      -0.193300
     15 C14         -4.2100     0.1970     0.4380 c3         1 NTD       0.727200
     16 F2          -4.6630     1.0390     1.3670 f          1 NTD      -0.225967
     17 F3          -4.9140     0.4150    -0.6780 f          1 NTD      -0.225967
     18 F1          -4.5040    -1.0430     0.8450 f          1 NTD      -0.225967
     19 C10         -2.1550    -0.3990    -0.8160 ca         1 NTD      -0.019000
     20 C9          -0.8050    -0.2580    -1.0600 ca         1 NTD      -0.133200
     21 N           -0.2040    -1.0640    -2.1070 no         1 NTD       0.319200
     22 ON2         -0.8120    -2.0260    -2.5060 o          1 NTD      -0.189000
     23 ON1          0.8770    -0.7180    -2.5200 o          1 NTD      -0.189000
     24 H21          5.8500     0.2120     0.5200 hc         1 NTD       0.069700
     25 H22          4.8020     0.7490     1.8240 hc         1 NTD       0.069700
     26 H31          4.6760    -1.9950     0.4840 hc         1 NTD       0.055200
     27 H32          5.2640    -1.6510     2.0990 hc         1 NTD       0.055200
     28 H41          2.8950    -2.4530     2.1900 hc         1 NTD       0.069700
     29 H42          3.0420    -0.7980     2.7730 hc         1 NTD       0.069700
     30 HO7          0.8400     2.3190    -1.6360 ho         1 NTD       0.443000
     31 H13         -0.0110     2.0120     1.2960 ha         1 NTD       0.159000
     32 H12         -2.3980     1.8090     1.7470 ha         1 NTD       0.165000
     33 H10         -2.7430    -1.0850    -1.4080 ha         1 NTD       0.188000
@<TRIPOS>BOND
     1     1     2 2   
     2     2     3 1   
     3     2     8 1   
     4     3     4 1   
     5     3    24 1   
     6     3    25 1   
     7     4     5 1   
     8     4    26 1   
     9     4    27 1   
    10     5     6 1   
    11     5    28 1   
    12     5    29 1   
    13     6     7 2   
    14     6     8 1   
    15     8     9 2   
    16     9    10 1   
    17     9    11 1   
    18    10    30 1   
    19    11    12 ar  
    20    11    20 ar  
    21    12    13 ar  
    22    12    31 1   
    23    13    14 ar  
    24    13    32 1   
    25    14    15 1   
    26    14    19 ar  
    27    15    16 1   
    28    15    17 1   
    29    15    18 1   
    30    19    20 ar  
    31    19    33 1   
    32    20    21 1   
    33    21    22 1   
    34    21    23 1   
@<TRIPOS>SUBSTRUCTURE
     1 NTD         1 TEMP              0 ****  ****    0 ROOT
