@<TRIPOS>MOLECULE
NTF
   30    30     1     0     0
SMALL
No Charge or Current Charge


@<TRIPOS>ATOM
      1 C1           0.2580    -0.3910     0.3430 c6         1 NTF       0.301700
      2 N1          -1.1240    -0.4140    -0.1230 ns         1 NTF      -0.485900
      3 C2           1.0720    -1.6200    -0.1870 c6         1 NTF       0.100300
      4 O2           0.5720    -2.8800     0.3250 oh         1 NTF      -0.713000
      5 C3           2.5630    -1.4500     0.2200 c6         1 NTF       0.138300
      6 O3           3.3430    -2.5460    -0.2860 oh         1 NTF      -0.664000
      7 C4           3.1180    -0.0910    -0.2960 c6         1 NTF       0.143300
      8 O4           4.4870     0.0640     0.1220 oh         1 NTF      -0.714000
      9 C5           2.2040     1.0650     0.2210 c6         1 NTF       0.178300
     10 O5           0.8300     0.8210    -0.1840 os         1 NTF      -0.457000
     11 C6           2.6430     2.4630    -0.3300 c3         1 NTF       0.172600
     12 O6           1.7840     3.5430     0.0930 oh         1 NTF      -0.707000
     13 C7          -2.1580     0.3000     0.4500 c          1 NTF       0.561100
     14 O7          -2.0060     0.9090     1.5030 o          1 NTF      -0.513100
     15 C8          -3.5070     0.2540    -0.3230 c3         1 NTF       0.218000
     16 F1          -4.4710     0.9820     0.2900 f          1 NTF      -0.101333
     17 F2          -3.3730     0.7420    -1.5790 f          1 NTF      -0.101333
     18 F3          -3.9690    -1.0150    -0.4300 f          1 NTF      -0.101333
     19 H1           0.2760    -0.3720     1.4440 h2         1 NTF       0.089700
     20 HN1         -1.3180    -0.8530    -1.0160 hn         1 NTF       0.329500
     21 H2           1.0130    -1.6160    -1.2870 h1         1 NTF       0.053700
     22 HO2         -0.3870    -2.9370     0.1010 ho         1 NTF       0.517000
     23 H3           2.6100    -1.4410     1.3210 h1         1 NTF       0.060700
     24 HO3          2.7580    -3.3340    -0.1810 ho         1 NTF       0.467000
     25 H4           3.0670    -0.0960    -1.3960 h1         1 NTF       0.053700
     26 HO4          4.8880    -0.8330     0.0110 ho         1 NTF       0.527000
     27 H5           2.2490     1.1030     1.3200 h1         1 NTF       0.068700
     28 H61          2.6610     2.4040    -1.4270 h1         1 NTF       0.036700
     29 H62          3.6720     2.6550     0.0010 h1         1 NTF       0.036700
     30 HO6          2.1040     4.3590    -0.3580 ho         1 NTF       0.506000
@<TRIPOS>BOND
     1     1     2 1   
     2     1     3 1   
     3     1    10 1   
     4     1    19 1   
     5     2    13 1   
     6     2    20 1   
     7     3     4 1   
     8     3     5 1   
     9     3    21 1   
    10     4    22 1   
    11     5     6 1   
    12     5     7 1   
    13     5    23 1   
    14     6    24 1   
    15     7     8 1   
    16     7     9 1   
    17     7    25 1   
    18     8    26 1   
    19     9    10 1   
    20     9    11 1   
    21     9    27 1   
    22    11    12 1   
    23    11    28 1   
    24    11    29 1   
    25    12    30 1   
    26    13    14 2   
    27    13    15 1   
    28    15    16 1   
    29    15    17 1   
    30    15    18 1   
@<TRIPOS>SUBSTRUCTURE
     1 NTF         1 TEMP              0 ****  ****    0 ROOT
