@<TRIPOS>MOLECULE
NTF
   30    30     1     0     0
SMALL
bcc


@<TRIPOS>ATOM
      1 C1           0.2490    -0.2500     0.2370 c6         1 NTF       0.278500
      2 N1          -1.1040    -0.2680    -0.2350 ns         1 NTF      -0.552900
      3 C2           0.9800    -1.5220    -0.1970 c6         1 NTF       0.077100
      4 O2           0.4290    -2.6590     0.4140 oh         1 NTF      -0.590800
      5 C3           2.4390    -1.4210     0.2300 c6         1 NTF       0.115100
      6 O3           3.2070    -2.4860    -0.2750 oh         1 NTF      -0.601800
      7 C4           3.0610    -0.1240    -0.2770 c6         1 NTF       0.120100
      8 O4           4.3540     0.0570     0.2410 oh         1 NTF      -0.591800
      9 C5           2.2030     1.0630     0.1610 c6         1 NTF       0.155100
     10 O5           0.8770     0.8850    -0.2990 os         1 NTF      -0.410600
     11 C6           2.7120     2.3730    -0.4030 c3         1 NTF       0.149400
     12 O6           1.9280     3.4200     0.1150 oh         1 NTF      -0.584800
     13 C7          -2.1340     0.2090     0.4800 c          1 NTF       0.628100
     14 O7          -2.0870     0.6490     1.6050 o          1 NTF      -0.513100
     15 C8          -3.4850     0.1340    -0.2590 c3         1 NTF       0.581900
     16 F1          -4.4530     0.6390     0.4870 f          1 NTF      -0.222633
     17 F2          -3.4380     0.8180    -1.4060 f          1 NTF      -0.222633
     18 F3          -3.7970    -1.1300    -0.5540 f          1 NTF      -0.222633
     19 H1           0.2320    -0.2040     1.3330 h2         1 NTF       0.089700
     20 HN1         -1.2470    -0.5380    -1.1990 hn         1 NTF       0.329500
     21 H2           0.9390    -1.5930    -1.2950 h1         1 NTF       0.053700
     22 HO2         -0.3590    -2.9290    -0.0680 ho         1 NTF       0.418000
     23 H3           2.4730    -1.4030     1.3310 h1         1 NTF       0.060700
     24 HO3          2.9640    -3.2900     0.1940 ho         1 NTF       0.428000
     25 H4           3.0740    -0.1530    -1.3790 h1         1 NTF       0.053700
     26 HO4          4.9010    -0.6810    -0.0500 ho         1 NTF       0.428000
     27 H5           2.2140     1.1190     1.2620 h1         1 NTF       0.068700
     28 H61          2.6660     2.3300    -1.5000 h1         1 NTF       0.036700
     29 H62          3.7660     2.4790    -0.1280 h1         1 NTF       0.036700
     30 HO6          2.2940     4.2500    -0.2030 ho         1 NTF       0.407000
@<TRIPOS>BOND
     1     1     2 1   
     2     1     3 1   
     3     1    10 1   
     4     1    19 1   
     5     2    13 1   
     6     2    20 1   
     7     3     4 1   
     8     3     5 1   
     9     3    21 1   
    10     4    22 1   
    11     5     6 1   
    12     5     7 1   
    13     5    23 1   
    14     6    24 1   
    15     7     8 1   
    16     7     9 1   
    17     7    25 1   
    18     8    26 1   
    19     9    10 1   
    20     9    11 1   
    21     9    27 1   
    22    11    12 1   
    23    11    28 1   
    24    11    29 1   
    25    12    30 1   
    26    13    14 2   
    27    13    15 1   
    28    15    16 1   
    29    15    17 1   
    30    15    18 1   
@<TRIPOS>SUBSTRUCTURE
     1 NTF         1 TEMP              0 ****  ****    0 ROOT
