@<TRIPOS>MOLECULE
NTG
   28    29     1     0     0
SMALL
No Charge or Current Charge


@<TRIPOS>ATOM
      1 N1          -5.1880    -0.2400    -1.8480 n1         1 NTG      -0.455000
      2 N3           1.0580     0.1320     0.9470 nh         1 NTG      -0.791400
      3 C4          -1.0070    -1.1560     0.5010 ca         1 NTG      -0.173000
      4 C5          -0.2520     0.0310     0.3700 ca         1 NTG       0.317000
      5 C6          -0.8690     1.0980    -0.3520 ca         1 NTG       0.265900
      6 C7           1.7750     1.4240     1.0200 c3         1 NTG       0.216800
      7 C8           2.6150     1.7280    -0.2390 c3         1 NTG      -0.140400
      8 C10          2.5590    -1.5790    -0.2510 c3         1 NTG       0.133600
      9 C11          1.9440    -1.0560     1.0800 c3         1 NTG       0.174800
     10 C2          -2.8060    -0.1180    -0.7730 ca         1 NTG       0.357000
     11 C3          -2.2900    -1.2280    -0.0760 ca         1 NTG      -0.068000
     12 C9           3.6270     0.6280    -0.6460 c3         1 NTG       0.159600
     13 N2          -2.1060     1.0380    -0.9110 nb         1 NTG      -0.603000
     14 O1           2.9000    -0.5050    -1.1720 os         1 NTG      -0.446000
     15 H1          -0.6260    -2.0110     1.0480 ha         1 NTG       0.120000
     16 H2          -0.3540     2.0450    -0.4970 h4         1 NTG       0.022100
     17 H3           1.0700     2.2470     1.1970 h1         1 NTG       0.056700
     18 H4           2.4460     1.4180     1.8900 h1         1 NTG       0.056700
     19 H5           1.9480     1.9220    -1.0870 hc         1 NTG       0.061700
     20 H6           3.1660     2.6590    -0.0640 hc         1 NTG       0.061700
     21 H7           3.4470    -2.1800    -0.0150 h1         1 NTG       0.050200
     22 H8           1.8320    -2.2470    -0.7300 h1         1 NTG       0.050200
     23 H9           2.7780    -0.8090     1.7500 h1         1 NTG       0.058200
     24 H10          1.4240    -1.8820     1.5800 h1         1 NTG       0.058200
     25 H11         -2.8820    -2.1350     0.0190 ha         1 NTG       0.130000
     26 H12          4.2790     1.0380    -1.4290 h1         1 NTG       0.045200
     27 H13          4.2660     0.3490     0.2030 h1         1 NTG       0.045200
     28 C1          -4.1210    -0.1790    -1.3690 cg         1 NTG       0.237000
@<TRIPOS>BOND
     1     1    28 3   
     2     2     4 1   
     3     2     6 1   
     4     2     9 1   
     5     3     4 ar  
     6     3    11 ar  
     7     3    15 1   
     8     4     5 ar  
     9     5    13 ar  
    10     5    16 1   
    11     6     7 1   
    12     6    17 1   
    13     6    18 1   
    14     7    12 1   
    15     7    19 1   
    16     7    20 1   
    17     8     9 1   
    18     8    14 1   
    19     8    21 1   
    20     8    22 1   
    21     9    23 1   
    22     9    24 1   
    23    10    11 ar  
    24    10    13 ar  
    25    10    28 1   
    26    11    25 1   
    27    12    14 1   
    28    12    26 1   
    29    12    27 1   
@<TRIPOS>SUBSTRUCTURE
     1 NTG         1 TEMP              0 ****  ****    0 ROOT
