@<TRIPOS>MOLECULE
NTG
   28    29     1     0     0
SMALL
abcg2


@<TRIPOS>ATOM
      1 N1          -5.0540    -0.1270    -1.7640 n1         1 NTG      -0.455000
      2 N3           1.0430     0.1810     0.9690 nh         1 NTG      -0.791400
      3 C4          -0.8130    -1.1940     0.2390 ca         1 NTG      -0.173000
      4 C5          -0.1730     0.0510     0.3830 ca         1 NTG       0.317000
      5 C6          -0.8990     1.1730    -0.1010 ca         1 NTG       0.265900
      6 C7           1.7670     1.4440     0.9520 c3         1 NTG       0.216800
      7 C8           2.5360     1.6760    -0.3430 c3         1 NTG      -0.140400
      8 C10          2.4860    -1.5750    -0.0670 c3         1 NTG       0.133600
      9 C11          1.8750    -0.9780     1.2120 c3         1 NTG       0.174800
     10 C2          -2.6900    -0.0880    -0.7280 ca         1 NTG       0.357000
     11 C3          -2.0740    -1.2610    -0.3100 ca         1 NTG      -0.068000
     12 C9           3.4500     0.5190    -0.7290 c3         1 NTG       0.159600
     13 N2          -2.0990     1.1020    -0.6240 nb         1 NTG      -0.603000
     14 O1           2.7170    -0.6370    -1.0850 os         1 NTG      -0.446000
     15 H1          -0.3420    -2.1130     0.5550 ha         1 NTG       0.120000
     16 H2          -0.4730     2.1660    -0.0570 h4         1 NTG       0.022100
     17 H3           1.0880     2.2720     1.1500 h1         1 NTG       0.056700
     18 H4           2.4610     1.4240     1.7950 h1         1 NTG       0.056700
     19 H5           1.8420     1.8640    -1.1670 hc         1 NTG       0.061700
     20 H6           3.1410     2.5790    -0.2300 hc         1 NTG       0.061700
     21 H7           3.4070    -2.1010     0.2170 h1         1 NTG       0.050200
     22 H8           1.8140    -2.3180    -0.5010 h1         1 NTG       0.050200
     23 H9           2.6650    -0.6620     1.8920 h1         1 NTG       0.058200
     24 H10          1.3250    -1.7550     1.7470 h1         1 NTG       0.058200
     25 H11         -2.5720    -2.2150    -0.4180 ha         1 NTG       0.130000
     26 H12          4.0320     0.8070    -1.6070 h1         1 NTG       0.045200
     27 H13          4.1710     0.3090     0.0720 h1         1 NTG       0.045200
     28 C1          -3.9970    -0.1070    -1.3050 cg         1 NTG       0.237000
@<TRIPOS>BOND
     1     1    28 3   
     2     2     4 1   
     3     2     6 1   
     4     2     9 1   
     5     3     4 ar  
     6     3    11 ar  
     7     3    15 1   
     8     4     5 ar  
     9     5    13 ar  
    10     5    16 1   
    11     6     7 1   
    12     6    17 1   
    13     6    18 1   
    14     7    12 1   
    15     7    19 1   
    16     7    20 1   
    17     8     9 1   
    18     8    14 1   
    19     8    21 1   
    20     8    22 1   
    21     9    23 1   
    22     9    24 1   
    23    10    11 ar  
    24    10    13 ar  
    25    10    28 1   
    26    11    25 1   
    27    12    14 1   
    28    12    26 1   
    29    12    27 1   
@<TRIPOS>SUBSTRUCTURE
     1 NTG         1 TEMP              0 ****  ****    0 ROOT
