@<TRIPOS>MOLECULE
NTH
   56    59     1     0     0
SMALL
bcc


@<TRIPOS>ATOM
      1 C1          -1.8180    -1.0270    -3.9670 c6         1 NTH      -0.067400
      2 C2          -2.2630    -0.8050    -5.4040 c6         1 NTH      -0.181400
      3 C3          -2.1660     0.6450    -5.7870 c          1 NTH       0.579300
      4 O3          -2.9490     1.1780    -6.5540 o          1 NTH      -0.538100
      5 C4          -1.0160     1.3620    -5.2400 ce         1 NTH      -0.279200
      6 C5          -0.1650     0.8210    -4.3520 c2         1 NTH      -0.026400
      7 C6           1.1050     1.5250    -3.9940 c6         1 NTH      -0.052200
      8 C7           1.3360     1.5800    -2.4890 c6         1 NTH      -0.070400
      9 C8           1.2540     0.1880    -1.8800 c6         1 NTH      -0.044700
     10 C9          -0.1140    -0.4450    -2.1820 c6         1 NTH      -0.052700
     11 C10         -0.4030    -0.5150    -3.6970 c6         1 NTH      -0.033500
     12 C11         -0.2630    -1.8190    -1.5180 c6         1 NTH      -0.070400
     13 C12          0.0280    -1.7960    -0.0140 c6         1 NTH      -0.058400
     14 C13          1.3970    -1.1850     0.2640 c5         1 NTH      -0.043000
     15 C14          1.4600     0.2090    -0.3750 c5         1 NTH      -0.064700
     16 C15          2.7490     0.8080     0.1870 c5         1 NTH      -0.068400
     17 C16          2.8600     0.2040     1.6070 c5         1 NTH      -0.097400
     18 C17          1.7520    -0.8650     1.7220 c5         1 NTH       0.156100
     19 O17          0.5870    -0.3300     2.3650 os         1 NTH      -0.435900
     20 C18          2.4990    -2.1270    -0.2430 c3         1 NTH      -0.084100
     21 C20          0.5620    -0.2550     3.6910 c          1 NTH       0.630100
     22 O20          1.4860    -0.5940     4.3910 o          1 NTH      -0.563000
     23 C21         -0.7460     0.6520     5.6570 c3         1 NTH      -0.206400
     24 C22         -0.7550     0.2750     4.1880 c3         1 NTH      -0.107400
     25 C23         -2.0970     1.1570     6.1970 c          1 NTH       0.928600
     26 O23         -3.0720     1.1560     5.4210 o          1 NTH      -0.842800
     27 O24         -2.0990     1.5250     7.3900 o          1 NTH      -0.842800
     28 H11         -2.5130    -0.5180    -3.2910 hc         1 NTH       0.052200
     29 H12         -1.8850    -2.0900    -3.7350 hc         1 NTH       0.052200
     30 H21         -3.2790    -1.1670    -5.5670 hc         1 NTH       0.064700
     31 H22         -1.6110    -1.3660    -6.0850 hc         1 NTH       0.064700
     32 H7          -0.8210     2.3520    -5.6390 ha         1 NTH       0.142000
     33 H61          1.1250     2.5220    -4.4350 hc         1 NTH       0.049700
     34 H62          1.9300     0.9620    -4.4480 hc         1 NTH       0.049700
     35 H71          0.5920     2.2340    -2.0210 hc         1 NTH       0.048700
     36 H72          2.3130     2.0250    -2.2910 hc         1 NTH       0.048700
     37 H8           2.0380    -0.4250    -2.3450 hc         1 NTH       0.042700
     38 H9          -0.8730     0.2200    -1.7420 hc         1 NTH       0.059700
     39 H10          0.3210    -1.2160    -4.1420 hc         1 NTH       0.056700
     40 H111         0.3920    -2.5370    -2.0230 hc         1 NTH       0.033700
     41 H112        -1.2780    -2.1940    -1.6610 hc         1 NTH       0.033700
     42 H121        -0.0430    -2.8120     0.3870 hc         1 NTH       0.056200
     43 H122        -0.7500    -1.2080     0.4790 hc         1 NTH       0.056200
     44 H14          0.6210     0.7820     0.0450 hc         1 NTH       0.071700
     45 H151         3.6080     0.5240    -0.4270 hc         1 NTH       0.035700
     46 H152         2.7250     1.8970     0.2090 hc         1 NTH       0.035700
     47 H161         3.8360    -0.2530     1.7700 hc         1 NTH       0.055200
     48 H162         2.7480     0.9640     2.3790 hc         1 NTH       0.055200
     49 H17          2.0810    -1.7530     2.2680 h1         1 NTH       0.065700
     50 H181         2.4420    -2.3010    -1.3170 hc         1 NTH       0.030700
     51 H182         3.5030    -1.7580    -0.0310 hc         1 NTH       0.030700
     52 H183         2.4050    -3.0990     0.2460 hc         1 NTH       0.030700
     53 H221        -0.4350    -0.2030     6.2640 hc         1 NTH       0.033200
     54 H222         0.0070     1.4240     5.8420 hc         1 NTH       0.033200
     55 H211        -1.0510     1.1220     3.5660 hc         1 NTH       0.072200
     56 H212        -1.5080    -0.4970     3.9980 hc         1 NTH       0.072200
@<TRIPOS>BOND
     1     1     2 1   
     2     1    11 1   
     3     1    28 1   
     4     1    29 1   
     5     2     3 1   
     6     2    30 1   
     7     2    31 1   
     8     3     4 2   
     9     3     5 1   
    10     5     6 2   
    11     5    32 1   
    12     6     7 1   
    13     6    11 1   
    14     7     8 1   
    15     7    33 1   
    16     7    34 1   
    17     8     9 1   
    18     8    35 1   
    19     8    36 1   
    20     9    10 1   
    21     9    15 1   
    22     9    37 1   
    23    10    11 1   
    24    10    12 1   
    25    10    38 1   
    26    11    39 1   
    27    12    13 1   
    28    12    40 1   
    29    12    41 1   
    30    13    14 1   
    31    13    42 1   
    32    13    43 1   
    33    14    15 1   
    34    14    18 1   
    35    14    20 1   
    36    15    16 1   
    37    15    44 1   
    38    16    17 1   
    39    16    45 1   
    40    16    46 1   
    41    17    18 1   
    42    17    47 1   
    43    17    48 1   
    44    18    19 1   
    45    18    49 1   
    46    19    21 1   
    47    20    50 1   
    48    20    51 1   
    49    20    52 1   
    50    21    22 2   
    51    21    24 1   
    52    23    24 1   
    53    23    25 1   
    54    23    53 1   
    55    23    54 1   
    56    24    55 1   
    57    24    56 1   
    58    25    26 1   
    59    25    27 1   
@<TRIPOS>SUBSTRUCTURE
     1 NTH         1 TEMP              0 ****  ****    0 ROOT
