@<TRIPOS>MOLECULE
NTH
   56    59     1     0     0
SMALL
No Charge or Current Charge


@<TRIPOS>ATOM
      1 C1          -2.0050    -1.0460    -3.7400 c6         1 NTH      -0.067400
      2 C2          -2.5140    -0.8620    -5.1860 c6         1 NTH      -0.181400
      3 C3          -2.4080     0.5980    -5.6180 c          1 NTH       0.579300
      4 O3          -3.2860     1.1580    -6.2600 o          1 NTH      -0.538100
      5 C4          -1.1440     1.2730    -5.2400 ce         1 NTH      -0.329200
      6 C5          -0.2940     0.7880    -4.3040 c2         1 NTH      -0.026400
      7 C6           1.0210     1.4990    -4.0060 c6         1 NTH      -0.052200
      8 C7           1.3180     1.5870    -2.4980 c6         1 NTH      -0.070400
      9 C8           1.2660     0.1840    -1.8460 c6         1 NTH      -0.044700
     10 C9          -0.1580    -0.4450    -2.0380 c6         1 NTH      -0.052700
     11 C10         -0.5360    -0.5420    -3.5590 c6         1 NTH      -0.033500
     12 C11         -0.2710    -1.8280    -1.3050 c6         1 NTH      -0.070400
     13 C12          0.1450    -1.7530     0.1930 c6         1 NTH      -0.058400
     14 C13          1.5740    -1.1510     0.3650 c5         1 NTH      -0.043000
     15 C14          1.6120     0.2450    -0.3300 c5         1 NTH      -0.064700
     16 C15          3.0090     0.7780     0.0910 c5         1 NTH      -0.068400
     17 C16          3.1280     0.3290     1.5900 c5         1 NTH      -0.097400
     18 C17          1.9690    -0.7140     1.8210 c5         1 NTH       0.179300
     19 O17          0.8450    -0.0260     2.4400 os         1 NTH      -0.459100
     20 C18          2.6090    -2.2010    -0.1740 c3         1 NTH      -0.084100
     21 C20          0.9710     0.2140     3.7880 c          1 NTH       0.581100
     22 O20          1.9050    -0.1570     4.4890 o          1 NTH      -0.514000
     23 C21         -1.3280    -0.0510     4.8810 c3         1 NTH      -0.206400
     24 C22         -0.2590     0.9420     4.3420 c3         1 NTH      -0.107400
     25 C23         -2.5380     0.7170     5.4350 c          1 NTH       0.718000
     26 O23         -3.4420     1.0000     4.6640 o          1 NTH      -0.737500
     27 O24         -2.5120     1.0630     6.6060 o          1 NTH      -0.737500
     28 H11         -2.6740    -0.5020    -3.0580 hc         1 NTH       0.052200
     29 H12         -2.0800    -2.1080    -3.4720 hc         1 NTH       0.052200
     30 H21         -3.5340    -1.2400    -5.3410 hc         1 NTH       0.064700
     31 H22         -1.8260    -1.4290    -5.8280 hc         1 NTH       0.064700
     32 H7          -0.9590     2.2240    -5.7340 ha         1 NTH       0.192000
     33 H61          1.0180     2.5100    -4.4360 hc         1 NTH       0.049700
     34 H62          1.8360     0.9580    -4.5070 hc         1 NTH       0.049700
     35 H71          0.5920     2.2570    -2.0160 hc         1 NTH       0.048700
     36 H72          2.3080     2.0410    -2.3540 hc         1 NTH       0.048700
     37 H8           2.0060    -0.4490    -2.3530 hc         1 NTH       0.042700
     38 H9          -0.8810     0.2340    -1.5620 hc         1 NTH       0.059700
     39 H10          0.1290    -1.2840    -4.0230 hc         1 NTH       0.056700
     40 H111         0.3260    -2.5840    -1.8320 hc         1 NTH       0.033700
     41 H112        -1.3070    -2.1900    -1.3410 hc         1 NTH       0.033700
     42 H121         0.0900    -2.7500     0.6530 hc         1 NTH       0.056200
     43 H122        -0.5960    -1.1380     0.7210 hc         1 NTH       0.056200
     44 H14          0.8410     0.9040     0.0910 hc         1 NTH       0.071700
     45 H151         3.8110     0.3540    -0.5240 hc         1 NTH       0.035700
     46 H152         3.0800     1.8670    -0.0110 hc         1 NTH       0.035700
     47 H161         4.1070    -0.1240     1.7800 hc         1 NTH       0.055200
     48 H162         3.0520     1.1870     2.2670 hc         1 NTH       0.055200
     49 H17          2.2690    -1.5740     2.4380 h1         1 NTH       0.065700
     50 H181         2.5040    -2.3890    -1.2480 hc         1 NTH       0.030700
     51 H182         3.6480    -1.8980    -0.0070 hc         1 NTH       0.030700
     52 H183         2.4830    -3.1640     0.3350 hc         1 NTH       0.030700
     53 H221        -1.6250    -0.6680     4.0250 hc         1 NTH       0.033200
     54 H222        -0.8360    -0.6160     5.6830 hc         1 NTH       0.033200
     55 H211         0.0550     1.6070     5.1550 hc         1 NTH       0.072200
     56 H212        -0.7240     1.5190     3.5340 hc         1 NTH       0.072200
@<TRIPOS>BOND
     1     1     2 1   
     2     1    11 1   
     3     1    28 1   
     4     1    29 1   
     5     2     3 1   
     6     2    30 1   
     7     2    31 1   
     8     3     4 2   
     9     3     5 1   
    10     5     6 2   
    11     5    32 1   
    12     6     7 1   
    13     6    11 1   
    14     7     8 1   
    15     7    33 1   
    16     7    34 1   
    17     8     9 1   
    18     8    35 1   
    19     8    36 1   
    20     9    10 1   
    21     9    15 1   
    22     9    37 1   
    23    10    11 1   
    24    10    12 1   
    25    10    38 1   
    26    11    39 1   
    27    12    13 1   
    28    12    40 1   
    29    12    41 1   
    30    13    14 1   
    31    13    42 1   
    32    13    43 1   
    33    14    15 1   
    34    14    18 1   
    35    14    20 1   
    36    15    16 1   
    37    15    44 1   
    38    16    17 1   
    39    16    45 1   
    40    16    46 1   
    41    17    18 1   
    42    17    47 1   
    43    17    48 1   
    44    18    19 1   
    45    18    49 1   
    46    19    21 1   
    47    20    50 1   
    48    20    51 1   
    49    20    52 1   
    50    21    22 2   
    51    21    24 1   
    52    23    24 1   
    53    23    25 1   
    54    23    53 1   
    55    23    54 1   
    56    24    55 1   
    57    24    56 1   
    58    25    26 1   
    59    25    27 1   
@<TRIPOS>SUBSTRUCTURE
     1 NTH         1 TEMP              0 ****  ****    0 ROOT
