@<TRIPOS>MOLECULE
NTI
   30    31     1     0     0
SMALL
abcg2


@<TRIPOS>ATOM
      1 S            2.7370    -1.1730     0.8740 ss         1 NTI       0.053600
      2 C1          -2.1620    -0.6920    -0.1320 ca         1 NTI      -0.173600
      3 N1           0.2190    -0.6430     0.1620 ns         1 NTI      -0.480400
      4 C2          -3.3250    -0.0550     0.2970 ca         1 NTI       0.164100
      5 N2           1.9440     0.7850    -0.6150 nc         1 NTI      -0.671000
      6 C3          -0.8900     0.0740    -0.2530 c          1 NTI       0.633700
      7 N3           5.2620    -0.2230     0.4960 no         1 NTI       0.746200
      8 O3          -3.9480     1.9620    -1.3000 o          1 NTI      -0.448000
      9 C4          -2.2240    -2.0400    -0.4790 ca         1 NTI      -0.076000
     10 O4           6.0330     0.5800     0.0210 o          1 NTI      -0.398500
     11 C5          -4.5210    -0.7430     0.3860 ca         1 NTI      -0.116000
     12 O5           5.5800    -1.1650     1.1930 o          1 NTI      -0.398500
     13 C6          -3.4230    -2.7320    -0.4090 ca         1 NTI      -0.116000
     14 C7           1.5190    -0.2440     0.0600 cd         1 NTI       0.594300
     15 C8          -4.5680    -2.0830     0.0310 ca         1 NTI      -0.069000
     16 C9           3.8880    -0.0660     0.2280 cd         1 NTI      -0.410200
     17 C10          3.2850     0.8940    -0.5250 cc         1 NTI       0.424900
     18 C11         -3.5400     2.2150    -0.2030 c          1 NTI       0.613100
     19 C12         -3.2720     3.5710     0.3620 c3         1 NTI      -0.153100
     20 HN1          0.0430    -1.5070     0.6540 hn         1 NTI       0.339500
     21 H4          -1.3390    -2.5500    -0.8380 ha         1 NTI       0.119000
     22 H5          -5.4080    -0.2360     0.7430 ha         1 NTI       0.136000
     23 H6          -3.4610    -3.7740    -0.6930 ha         1 NTI       0.125000
     24 H8          -5.5050    -2.6190     0.0950 ha         1 NTI       0.125000
     25 H10          3.7990     1.6980    -1.0340 h4         1 NTI       0.073100
     26 H12         -2.2130     3.6680     0.6050 hc         1 NTI       0.075367
     27 H12A        -3.5460     4.3400    -0.3540 hc         1 NTI       0.075367
     28 H12B        -3.8340     3.7220     1.2840 hc         1 NTI       0.075367
     29 O1          -3.2660     1.2530     0.7100 os         1 NTI      -0.370200
     30 O2          -0.8310     1.2040    -0.6710 o          1 NTI      -0.495100
@<TRIPOS>BOND
     1     1    14 1   
     2     1    16 1   
     3     2     4 ar  
     4     2     6 1   
     5     2     9 ar  
     6     3     6 1   
     7     3    14 1   
     8     3    20 1   
     9     4    11 ar  
    10     4    29 1   
    11     5    14 2   
    12     5    17 1   
    13     6    30 2   
    14     7    10 1   
    15     7    12 1   
    16     7    16 1   
    17     8    18 2   
    18     9    13 ar  
    19     9    21 1   
    20    11    15 ar  
    21    11    22 1   
    22    13    15 ar  
    23    13    23 1   
    24    15    24 1   
    25    16    17 2   
    26    17    25 1   
    27    18    19 1   
    28    18    29 1   
    29    19    26 1   
    30    19    27 1   
    31    19    28 1   
@<TRIPOS>SUBSTRUCTURE
     1 NTI         1 TEMP              0 ****  ****    0 ROOT
