@<TRIPOS>MOLECULE
NTI
   30    31     1     0     0
SMALL
No Charge or Current Charge


@<TRIPOS>ATOM
      1 S            2.9170    -1.5250     0.4920 ss         1 NTI       0.053600
      2 C1          -2.0640    -0.6340    -0.0790 ca         1 NTI      -0.173600
      3 N1           0.3670    -0.6720     0.1030 ns         1 NTI      -0.480400
      4 C2          -3.2730     0.0610     0.1760 ca         1 NTI       0.164100
      5 N2           2.1600     0.8630    -0.2710 nc         1 NTI      -0.671000
      6 C3          -0.7410     0.1020    -0.1610 c          1 NTI       0.633700
      7 N3           5.5340    -0.5190     0.3190 no         1 NTI       0.746200
      8 O3          -4.6830     2.0490    -1.2570 o          1 NTI      -0.448000
      9 C4          -2.1270    -2.0380    -0.2810 ca         1 NTI      -0.076000
     10 O4           6.2970     0.4210     0.0720 o          1 NTI      -0.398500
     11 C5          -4.4950    -0.6340     0.2510 ca         1 NTI      -0.116000
     12 O5           5.9040    -1.6410     0.6780 o          1 NTI      -0.398500
     13 C6          -3.3530    -2.7200    -0.2180 ca         1 NTI      -0.116000
     14 C7           1.6930    -0.3280     0.0690 cd         1 NTI       0.594300
     15 C8          -4.5380    -2.0210     0.0510 ca         1 NTI      -0.069000
     16 C9           4.1260    -0.2890     0.1780 cd         1 NTI      -0.410200
     17 C10          3.5320     0.8820    -0.2070 cc         1 NTI       0.424900
     18 C11         -3.9850     2.3230    -0.2900 c          1 NTI       0.613100
     19 C12         -3.8040     3.7340     0.2490 c3         1 NTI      -0.153100
     20 HN1          0.1490    -1.6160     0.3840 hn         1 NTI       0.339500
     21 H4          -1.2350    -2.6150    -0.5150 ha         1 NTI       0.119000
     22 H5          -5.4140    -0.0960     0.4730 ha         1 NTI       0.136000
     23 H6          -3.3850    -3.7960    -0.3800 ha         1 NTI       0.125000
     24 H8          -5.4860    -2.5530     0.1060 ha         1 NTI       0.125000
     25 H10          4.0400     1.8040    -0.4620 h4         1 NTI       0.073100
     26 H12         -2.7340     3.9660     0.2750 hc         1 NTI       0.075367
     27 H12A        -4.3700     4.4780    -0.3210 hc         1 NTI       0.075367
     28 H12B        -4.0700     3.7420     1.3120 hc         1 NTI       0.075367
     29 O1          -3.2640     1.4110     0.4320 os         1 NTI      -0.370200
     30 O2          -0.6660     1.2800    -0.4810 o          1 NTI      -0.495100
@<TRIPOS>BOND
     1     1    14 1   
     2     1    16 1   
     3     2     4 ar  
     4     2     6 1   
     5     2     9 ar  
     6     3     6 1   
     7     3    14 1   
     8     3    20 1   
     9     4    11 ar  
    10     4    29 1   
    11     5    14 2   
    12     5    17 1   
    13     6    30 2   
    14     7    10 1   
    15     7    12 1   
    16     7    16 1   
    17     8    18 2   
    18     9    13 ar  
    19     9    21 1   
    20    11    15 ar  
    21    11    22 1   
    22    13    15 ar  
    23    13    23 1   
    24    15    24 1   
    25    16    17 2   
    26    17    25 1   
    27    18    19 1   
    28    18    29 1   
    29    19    26 1   
    30    19    27 1   
    31    19    28 1   
@<TRIPOS>SUBSTRUCTURE
     1 NTI         1 TEMP              0 ****  ****    0 ROOT
