@<TRIPOS>MOLECULE
NTJ
   20    19     1     0     0
SMALL
bcc


@<TRIPOS>ATOM
      1 O1           1.2180     2.8690    -1.1310 o          1 NTJ      -0.766300
      2 P1           1.9760     1.6930    -1.6360 p5         1 NTJ       1.384400
      3 N1           1.2500     0.1960    -1.6430 n3         1 NTJ      -0.853700
      4 C2           0.7850    -0.3420    -0.3740 c3         1 NTJ       0.194600
      5 C1           0.4360    -0.1810    -2.7850 c3         1 NTJ       0.194600
      6 O2           3.3040     1.5060    -0.7500 os         1 NTJ      -0.562200
      7 C3           4.2680     0.4930    -1.0700 c3         1 NTJ       0.188400
      8 C4           5.4200     0.6060    -0.1020 c3         1 NTJ      -0.094100
      9 H2C1        -0.2150     0.0130    -0.1110 h1         1 NTJ       0.038867
     10 H2C2         1.4680    -0.0750     0.4320 h1         1 NTJ       0.038867
     11 H2C3         0.7560    -1.4310    -0.4340 h1         1 NTJ       0.038867
     12 H1C1         0.8390     0.2460    -3.7030 h1         1 NTJ       0.038867
     13 H1C2        -0.6050     0.1400    -2.6860 h1         1 NTJ       0.038867
     14 H1C3         0.4490    -1.2660    -2.8960 h1         1 NTJ       0.038867
     15 H3C1         3.8040    -0.4940    -1.0030 h1         1 NTJ       0.030200
     16 H3C2         4.6180     0.6240    -2.0990 h1         1 NTJ       0.030200
     17 H4C1         6.1580    -0.1640    -0.3280 hc         1 NTJ       0.047367
     18 H4C2         5.9130     1.5750    -0.1760 hc         1 NTJ       0.047367
     19 H4C3         5.0890     0.4610     0.9270 hc         1 NTJ       0.047367
     20 HP1          2.4090     1.7890    -2.9700 hp         1 NTJ      -0.121400
@<TRIPOS>BOND
     1     1     2 2   
     2     2     3 1   
     3     2     6 1   
     4     2    20 1   
     5     3     4 1   
     6     3     5 1   
     7     4     9 1   
     8     4    10 1   
     9     4    11 1   
    10     5    12 1   
    11     5    13 1   
    12     5    14 1   
    13     6     7 1   
    14     7     8 1   
    15     7    15 1   
    16     7    16 1   
    17     8    17 1   
    18     8    18 1   
    19     8    19 1   
@<TRIPOS>SUBSTRUCTURE
     1 NTJ         1 TEMP              0 ****  ****    0 ROOT
