@<TRIPOS>MOLECULE
NTJ
   20    19     1     0     0
SMALL
No Charge or Current Charge


@<TRIPOS>ATOM
      1 O1           1.0950     2.6660    -1.5270 o          1 NTJ      -0.537000
      2 P1           2.0660     1.5840    -1.8540 p5         1 NTJ       1.155100
      3 N1           1.3210     0.0790    -1.7570 n3         1 NTJ      -0.853700
      4 C2           0.9590    -0.3920    -0.4030 c3         1 NTJ       0.194600
      5 C1           0.2140    -0.1310    -2.7120 c3         1 NTJ       0.194600
      6 O2           3.2770     1.4370    -0.7960 os         1 NTJ      -0.585400
      7 C3           4.3740     0.5780    -1.1210 c3         1 NTJ       0.211600
      8 C4           5.3530     0.6140     0.0630 c3         1 NTJ      -0.094100
      9 H2C1         0.1910     0.2540     0.0450 h1         1 NTJ       0.038867
     10 H2C2         1.8310    -0.3990     0.2640 h1         1 NTJ       0.038867
     11 H2C3         0.5650    -1.4160    -0.4380 h1         1 NTJ       0.038867
     12 H1C1         0.5380     0.0870    -3.7380 h1         1 NTJ       0.038867
     13 H1C2        -0.6390     0.5200    -2.4750 h1         1 NTJ       0.038867
     14 H1C3        -0.1320    -1.1730    -2.6860 h1         1 NTJ       0.038867
     15 H3C1         4.0350    -0.4540    -1.2810 h1         1 NTJ       0.030200
     16 H3C2         4.8850     0.9230    -2.0300 h1         1 NTJ       0.030200
     17 H4C1         6.2160    -0.0300    -0.1390 hc         1 NTJ       0.047367
     18 H4C2         5.7170     1.6340     0.2320 hc         1 NTJ       0.047367
     19 H4C3         4.8640     0.2590     0.9780 hc         1 NTJ       0.047367
     20 HP1          2.6110     1.6170    -3.1630 hp         1 NTJ      -0.121400
@<TRIPOS>BOND
     1     1     2 2   
     2     2     3 1   
     3     2     6 1   
     4     2    20 1   
     5     3     4 1   
     6     3     5 1   
     7     4     9 1   
     8     4    10 1   
     9     4    11 1   
    10     5    12 1   
    11     5    13 1   
    12     5    14 1   
    13     6     7 1   
    14     7     8 1   
    15     7    15 1   
    16     7    16 1   
    17     8    17 1   
    18     8    18 1   
    19     8    19 1   
@<TRIPOS>SUBSTRUCTURE
     1 NTJ         1 TEMP              0 ****  ****    0 ROOT
