@<TRIPOS>MOLECULE
NTK
   47    46     1     0     0
SMALL
No Charge or Current Charge


@<TRIPOS>ATOM
      1 C01        -23.3340   -12.3770   -35.2400 c3         1 NTK       0.143300
      2 C03        -23.0890   -12.1680   -33.7200 c3         1 NTK       0.171100
      3 C04        -22.0160   -12.6720   -36.0130 c3         1 NTK       0.171100
      4 C07        -24.4010   -11.4510   -31.7500 c          1 NTK       0.610100
      5 C08        -23.1420   -11.7580   -30.9010 c3         1 NTK      -0.186400
      6 C09        -23.2800   -11.4630   -29.3870 c3         1 NTK      -0.064400
      7 C10        -21.9990   -11.7880   -28.5950 c3         1 NTK      -0.093100
      8 C11        -21.6550   -15.0960   -35.6420 c          1 NTK       0.610100
      9 C12        -22.1950   -15.4100   -37.0580 c3         1 NTK      -0.186400
     10 C13        -22.3030   -16.9150   -37.4030 c3         1 NTK      -0.064400
     11 C14        -22.8380   -17.1650   -38.8260 c3         1 NTK      -0.093100
     12 C15        -25.5860   -13.2980   -35.4230 c          1 NTK       0.602100
     13 C16        -26.3450   -14.6270   -35.4390 c3         1 NTK      -0.133400
     14 C17        -26.5950   -15.1700   -34.0100 c3         1 NTK      -0.066400
     15 C18        -27.4860   -14.2640   -33.1350 c3         1 NTK      -0.100100
     16 O02        -24.2290   -13.5020   -35.4200 os         1 NTK      -0.459100
     17 O05        -24.3010   -11.6690   -33.1080 os         1 NTK      -0.456600
     18 O06        -21.3130   -13.7820   -35.3960 os         1 NTK      -0.456600
     19 O19        -26.1320   -12.2030   -35.4200 o          1 NTK      -0.466000
     20 O20        -25.4380   -11.0380   -31.2560 o          1 NTK      -0.433000
     21 O21        -21.4640   -15.9640   -34.8050 o          1 NTK      -0.433000
     22 H1         -23.7560   -11.4560   -35.6660 h1         1 NTK       0.092700
     23 H2         -22.7890   -13.1280   -33.2800 h1         1 NTK       0.060200
     24 H3         -22.2670   -11.4520   -33.5900 h1         1 NTK       0.060200
     25 H4         -21.3900   -11.7730   -35.9500 h1         1 NTK       0.060200
     26 H5         -22.2210   -12.8300   -37.0780 h1         1 NTK       0.060200
     27 H6         -22.8590   -12.8020   -31.0720 hc         1 NTK       0.063950
     28 H7         -22.2910   -11.2180   -31.3310 hc         1 NTK       0.063950
     29 H8         -23.5300   -10.4040   -29.2420 hc         1 NTK       0.056200
     30 H9         -24.1120   -12.0480   -28.9750 hc         1 NTK       0.056200
     31 H10        -22.1400   -11.5660   -27.5310 hc         1 NTK       0.034533
     32 H11        -21.7420   -12.8500   -28.6920 hc         1 NTK       0.034533
     33 H12        -21.1540   -11.1920   -28.9610 hc         1 NTK       0.034533
     34 H13        -21.5690   -14.8770   -37.7830 hc         1 NTK       0.063950
     35 H14        -23.1600   -14.9120   -37.1930 hc         1 NTK       0.063950
     36 H15        -22.9670   -17.4080   -36.6820 hc         1 NTK       0.056200
     37 H16        -21.3160   -17.3840   -37.3040 hc         1 NTK       0.056200
     38 H17        -22.8990   -18.2410   -39.0280 hc         1 NTK       0.034533
     39 H18        -23.8410   -16.7370   -38.9440 hc         1 NTK       0.034533
     40 H19        -22.1770   -16.7110   -39.5750 hc         1 NTK       0.034533
     41 H20        -27.3030   -14.4990   -35.9550 hc         1 NTK       0.069700
     42 H21        -25.7280   -15.3760   -35.9490 hc         1 NTK       0.069700
     43 H22        -27.0670   -16.1580   -34.0860 hc         1 NTK       0.047700
     44 H23        -25.6320   -15.3210   -33.5050 hc         1 NTK       0.047700
     45 H24        -27.6730   -14.7390   -32.1640 hc         1 NTK       0.042700
     46 H25        -27.0040   -13.2970   -32.9490 hc         1 NTK       0.042700
     47 H26        -28.4530   -14.0840   -33.6190 hc         1 NTK       0.042700
@<TRIPOS>BOND
     1     1     2 1   
     2     1     3 1   
     3     1    16 1   
     4     1    22 1   
     5     2    17 1   
     6     2    23 1   
     7     2    24 1   
     8     3    18 1   
     9     3    25 1   
    10     3    26 1   
    11     4     5 1   
    12     4    17 1   
    13     4    20 2   
    14     5     6 1   
    15     5    27 1   
    16     5    28 1   
    17     6     7 1   
    18     6    29 1   
    19     6    30 1   
    20     7    31 1   
    21     7    32 1   
    22     7    33 1   
    23     8     9 1   
    24     8    18 1   
    25     8    21 2   
    26     9    10 1   
    27     9    34 1   
    28     9    35 1   
    29    10    11 1   
    30    10    36 1   
    31    10    37 1   
    32    11    38 1   
    33    11    39 1   
    34    11    40 1   
    35    12    13 1   
    36    12    16 1   
    37    12    19 2   
    38    13    14 1   
    39    13    41 1   
    40    13    42 1   
    41    14    15 1   
    42    14    43 1   
    43    14    44 1   
    44    15    45 1   
    45    15    46 1   
    46    15    47 1   
@<TRIPOS>SUBSTRUCTURE
     1 NTK         1 TEMP              0 ****  ****    0 ROOT
