@<TRIPOS>MOLECULE
NTK
   47    46     1     0     0
SMALL
bcc


@<TRIPOS>ATOM
      1 C01        -23.3290   -12.4650   -35.0850 c3         1 NTK       0.120100
      2 C03        -23.0320   -12.1810   -33.6260 c3         1 NTK       0.147900
      3 C04        -22.0850   -12.8330   -35.8690 c3         1 NTK       0.147900
      4 C07        -24.3620   -11.5060   -31.7280 c          1 NTK       0.659100
      5 C08        -23.1600   -11.7490   -30.8550 c3         1 NTK      -0.186400
      6 C09        -23.3890   -11.3990   -29.3920 c3         1 NTK      -0.064400
      7 C10        -22.1450   -11.6710   -28.5590 c3         1 NTK      -0.093100
      8 C11        -21.5350   -15.2070   -35.7860 c          1 NTK       0.659100
      9 C12        -22.2450   -15.4400   -37.0950 c3         1 NTK      -0.186400
     10 C13        -22.2460   -16.8990   -37.5270 c3         1 NTK      -0.064400
     11 C14        -23.0290   -17.0890   -38.8180 c3         1 NTK      -0.093100
     12 C15        -25.5160   -13.3480   -35.5260 c          1 NTK       0.651100
     13 C16        -26.3020   -14.6280   -35.4670 c3         1 NTK      -0.133400
     14 C17        -26.5010   -15.1410   -34.0370 c3         1 NTK      -0.066400
     15 C18        -27.2920   -14.1860   -33.1570 c3         1 NTK      -0.100100
     16 O02        -24.2480   -13.5530   -35.1510 os         1 NTK      -0.435900
     17 O05        -24.2480   -11.7330   -33.0400 os         1 NTK      -0.433400
     18 O06        -21.4320   -13.9630   -35.3040 os         1 NTK      -0.433400
     19 O19        -25.9480   -12.2780   -35.8640 o          1 NTK      -0.515000
     20 O20        -25.4270   -11.1230   -31.3200 o          1 NTK      -0.482000
     21 O21        -21.0180   -16.0840   -35.1450 o          1 NTK      -0.482000
     22 H1         -23.7460   -11.5700   -35.5530 h1         1 NTK       0.092700
     23 H2         -22.6640   -13.0780   -33.1250 h1         1 NTK       0.060200
     24 H3         -22.2620   -11.4070   -33.5610 h1         1 NTK       0.060200
     25 H4         -21.3780   -12.0050   -35.8150 h1         1 NTK       0.060200
     26 H5         -22.3360   -12.9740   -36.9200 h1         1 NTK       0.060200
     27 H6         -22.8710   -12.8020   -30.9440 hc         1 NTK       0.063950
     28 H7         -22.3090   -11.1820   -31.2470 hc         1 NTK       0.063950
     29 H8         -23.6680   -10.3470   -29.3040 hc         1 NTK       0.056200
     30 H9         -24.2280   -11.9770   -29.0010 hc         1 NTK       0.056200
     31 H10        -22.3070   -11.4090   -27.5140 hc         1 NTK       0.034533
     32 H11        -21.8640   -12.7250   -28.5970 hc         1 NTK       0.034533
     33 H12        -21.2920   -11.0910   -28.9170 hc         1 NTK       0.034533
     34 H13        -21.7800   -14.8220   -37.8700 hc         1 NTK       0.063950
     35 H14        -23.2730   -15.0770   -37.0160 hc         1 NTK       0.063950
     36 H15        -22.6810   -17.5170   -36.7390 hc         1 NTK       0.056200
     37 H16        -21.2200   -17.2450   -37.6640 hc         1 NTK       0.056200
     38 H17        -23.0240   -18.1340   -39.1280 hc         1 NTK       0.034533
     39 H18        -24.0710   -16.7840   -38.6990 hc         1 NTK       0.034533
     40 H19        -22.6040   -16.5020   -39.6330 hc         1 NTK       0.034533
     41 H20        -27.2700   -14.4530   -35.9380 hc         1 NTK       0.069700
     42 H21        -25.7830   -15.3890   -36.0550 hc         1 NTK       0.069700
     43 H22        -27.0270   -16.0950   -34.1050 hc         1 NTK       0.047700
     44 H23        -25.5320   -15.3600   -33.5830 hc         1 NTK       0.047700
     45 H24        -27.4830   -14.6300   -32.1790 hc         1 NTK       0.042700
     46 H25        -26.7630   -13.2470   -32.9870 hc         1 NTK       0.042700
     47 H26        -28.2570   -13.9440   -33.6060 hc         1 NTK       0.042700
@<TRIPOS>BOND
     1     1     2 1   
     2     1     3 1   
     3     1    16 1   
     4     1    22 1   
     5     2    17 1   
     6     2    23 1   
     7     2    24 1   
     8     3    18 1   
     9     3    25 1   
    10     3    26 1   
    11     4     5 1   
    12     4    17 1   
    13     4    20 2   
    14     5     6 1   
    15     5    27 1   
    16     5    28 1   
    17     6     7 1   
    18     6    29 1   
    19     6    30 1   
    20     7    31 1   
    21     7    32 1   
    22     7    33 1   
    23     8     9 1   
    24     8    18 1   
    25     8    21 2   
    26     9    10 1   
    27     9    34 1   
    28     9    35 1   
    29    10    11 1   
    30    10    36 1   
    31    10    37 1   
    32    11    38 1   
    33    11    39 1   
    34    11    40 1   
    35    12    13 1   
    36    12    16 1   
    37    12    19 2   
    38    13    14 1   
    39    13    41 1   
    40    13    42 1   
    41    14    15 1   
    42    14    43 1   
    43    14    44 1   
    44    15    45 1   
    45    15    46 1   
    46    15    47 1   
@<TRIPOS>SUBSTRUCTURE
     1 NTK         1 TEMP              0 ****  ****    0 ROOT
