@<TRIPOS>MOLECULE
NTL
   79    81     1     0     0
SMALL
No Charge or Current Charge


@<TRIPOS>ATOM
      1 C01         53.1820    47.8380   149.8300 c3         1 NTL      -0.097100
      2 C02         53.4450    47.4010   151.2770 c3         1 NTL       0.150800
      3 C04         55.3760    46.6470   152.7760 c6         1 NTL       0.143500
      4 C05         54.5040    45.5710   153.4840 c6         1 NTL      -0.106400
      5 C06         55.0790    45.1950   154.8690 c6         1 NTL       0.170500
      6 C08         55.2020    46.4510   155.7860 c6         1 NTL       0.101300
      7 C10         55.3130    46.8910   158.2150 c6         1 NTL       0.370300
      8 C12         53.4090    45.7000   159.1920 c2         1 NTL       0.078900
      9 C13         51.8840    45.6460   159.2310 c3         1 NTL       0.198000
     10 C15         54.2260    44.8540   159.8440 c2         1 NTL      -0.307200
     11 C16         55.7360    45.0310   159.8760 c6         1 NTL      -0.037200
     12 C17         56.1200    46.4800   159.4870 c6         1 NTL       0.087700
     13 C20         59.7710    47.6500   159.0330 c3         1 NTL      -0.181100
     14 C22         56.1270    47.5040   155.0890 c6         1 NTL       0.151300
     15 C24         55.5630    47.9140   153.6940 c6         1 NTL       0.193300
     16 C26         55.9300    49.8020   152.1290 c6         1 NTL       0.354300
     17 C28         57.2690    51.7030   152.7960 c6         1 NTL       0.135600
     18 C29         57.8840    51.9140   151.3820 c6         1 NTL       0.109000
     19 C30         59.2520    52.6520   151.4770 c3         1 NTL      -0.122100
     20 C32         57.9920    50.5240   150.6290 c6         1 NTL       0.208500
     21 C35         56.6200    49.7380   150.6930 c6         1 NTL       0.181300
     22 N03         54.8420    46.9290   151.4060 n7         1 NTL      -0.876400
     23 N07         54.2510    44.1500   155.5120 n8         1 NTL      -0.995200
     24 N14         51.2890    45.4450   157.8870 n8         1 NTL      -1.002200
     25 N18         57.5800    46.6020   159.2920 ns         1 NTL      -0.508900
     26 N33         59.2510    49.7380   150.9120 n7         1 NTL      -0.865400
     27 O09         55.6750    46.0380   157.0990 os         1 NTL      -0.491000
     28 O11         53.8890    46.7600   158.4530 os         1 NTL      -0.374100
     29 O21         57.7660    48.8390   159.6550 o          1 NTL      -0.600100
     30 O23         56.3500    48.6890   155.8790 oh         1 NTL      -0.705000
     31 O25         56.4710    48.9010   153.1350 os         1 NTL      -0.471000
     32 O27         55.9460    51.1380   152.6700 os         1 NTL      -0.449000
     33 O31         57.0070    52.7820   150.6390 oh         1 NTL      -0.715000
     34 O36         56.7130    48.3830   150.1790 oh         1 NTL      -0.729000
     35 H1          52.1420    48.1680   149.7190 hc         1 NTL       0.042700
     36 H2          53.8350    48.6710   149.5480 hc         1 NTL       0.042700
     37 H3          53.3530    47.0080   149.1340 hc         1 NTL       0.042700
     38 H4          53.2460    48.2490   151.9450 h1         1 NTL       0.033700
     39 H5          52.7400    46.6010   151.5360 h1         1 NTL       0.033700
     40 H6          56.3810    46.2140   152.6460 h1         1 NTL       0.073700
     41 H7          53.4770    45.9390   153.6110 hc         1 NTL       0.056200
     42 H8          54.4430    44.6730   152.8540 hc         1 NTL       0.056200
     43 H9          56.0870    44.7710   154.7330 h1         1 NTL       0.062700
     44 H10         54.1970    46.8880   155.8960 h1         1 NTL       0.062700
     45 H11         55.5440    47.9400   157.9840 h2         1 NTL       0.092700
     46 H13         51.5000    46.5870   159.6490 h1         1 NTL       0.047200
     47 H14         51.5540    44.8290   159.8880 h1         1 NTL       0.047200
     48 H15         53.8180    44.0310   160.4340 ha         1 NTL       0.191000
     49 H17         56.1210    44.8070   160.8810 hc         1 NTL       0.060200
     50 H18         56.2020    44.3080   159.1910 hc         1 NTL       0.060200
     51 H19         55.8180    47.1520   160.3030 h1         1 NTL       0.104700
     52 H20         60.2160    46.8910   159.6860 hc         1 NTL       0.062367
     53 H21         59.8820    47.1990   158.0410 hc         1 NTL       0.062367
     54 H22         60.3010    48.6070   159.1040 hc         1 NTL       0.062367
     55 H23         57.0970    47.0150   154.9130 h1         1 NTL       0.047700
     56 H24         54.5830    48.3880   153.8550 h1         1 NTL       0.053700
     57 H25         54.8750    49.5440   151.9710 h2         1 NTL       0.063700
     58 H26         57.8970    51.0540   153.4180 h1         1 NTL       0.052700
     59 H27         57.1880    52.6700   153.3130 h1         1 NTL       0.052700
     60 H28         59.1310    53.6550   151.9040 hc         1 NTL       0.042367
     61 H29         59.9600    52.1140   152.1190 hc         1 NTL       0.042367
     62 H30         59.7130    52.7680   150.4890 hc         1 NTL       0.042367
     63 H31         58.0930    50.7990   149.5680 h1         1 NTL       0.073700
     64 H32         60.3660    48.4380   152.1620 h1         1 NTL       0.027367
     65 H33         59.3030    49.5440   153.0440 h1         1 NTL       0.027367
     66 H34         58.6260    48.1360   152.1780 h1         1 NTL       0.027367
     67 H35         55.9340    50.2920   150.0370 h1         1 NTL       0.046700
     68 H36         54.8960    46.0490   150.8670 hn         1 NTL       0.424000
     69 H38         54.5420    44.1330   156.4980 hn         1 NTL       0.413500
     70 H39         53.2880    44.4950   155.5840 hn         1 NTL       0.413500
     71 H41         50.2690    45.5420   157.9570 hn         1 NTL       0.403000
     72 H42         51.5710    46.2390   157.3020 hn         1 NTL       0.403000
     73 H44         58.0970    45.7780   159.0130 hn         1 NTL       0.319500
     74 H45         60.0440    50.3850   150.8620 hn         1 NTL       0.412000
     75 H47         56.6550    49.3640   155.2290 ho         1 NTL       0.505000
     76 H48         56.1370    52.7510   151.1020 ho         1 NTL       0.502000
     77 H49         56.0190    47.8540   150.6800 ho         1 NTL       0.542000
     78 C19         58.2890    47.7760   159.3560 c          1 NTL       0.602100
     79 C34         59.3830    48.9280   152.1400 c3         1 NTL       0.165100
@<TRIPOS>BOND
     1     1     2 1   
     2     1    35 1   
     3     1    36 1   
     4     1    37 1   
     5     2    22 1   
     6     2    38 1   
     7     2    39 1   
     8     3     4 1   
     9     3    15 1   
    10     3    22 1   
    11     3    40 1   
    12     4     5 1   
    13     4    41 1   
    14     4    42 1   
    15     5     6 1   
    16     5    23 1   
    17     5    43 1   
    18     6    14 1   
    19     6    27 1   
    20     6    44 1   
    21     7    12 1   
    22     7    27 1   
    23     7    28 1   
    24     7    45 1   
    25     8     9 1   
    26     8    10 2   
    27     8    28 1   
    28     9    24 1   
    29     9    46 1   
    30     9    47 1   
    31    10    11 1   
    32    10    48 1   
    33    11    12 1   
    34    11    49 1   
    35    11    50 1   
    36    12    25 1   
    37    12    51 1   
    38    13    52 1   
    39    13    53 1   
    40    13    54 1   
    41    13    78 1   
    42    14    15 1   
    43    14    30 1   
    44    14    55 1   
    45    15    31 1   
    46    15    56 1   
    47    16    21 1   
    48    16    31 1   
    49    16    32 1   
    50    16    57 1   
    51    17    18 1   
    52    17    32 1   
    53    17    58 1   
    54    17    59 1   
    55    18    19 1   
    56    18    20 1   
    57    18    33 1   
    58    19    60 1   
    59    19    61 1   
    60    19    62 1   
    61    20    21 1   
    62    20    26 1   
    63    20    63 1   
    64    21    34 1   
    65    21    67 1   
    66    22    68 1   
    67    23    69 1   
    68    23    70 1   
    69    24    71 1   
    70    24    72 1   
    71    25    73 1   
    72    25    78 1   
    73    26    74 1   
    74    26    79 1   
    75    29    78 2   
    76    30    75 1   
    77    33    76 1   
    78    34    77 1   
    79    64    79 1   
    80    65    79 1   
    81    66    79 1   
@<TRIPOS>SUBSTRUCTURE
     1 NTL         1 TEMP              0 ****  ****    0 ROOT
