@<TRIPOS>MOLECULE
NTL
   79    81     1     0     0
SMALL
abcg2


@<TRIPOS>ATOM
      1 C01         52.9760    47.9380   149.9760 c3         1 NTL      -0.097100
      2 C02         53.2540    47.4070   151.3710 c3         1 NTL       0.150800
      3 C04         55.1320    46.6380   152.8150 c6         1 NTL       0.143500
      4 C05         54.2350    45.7050   153.6270 c6         1 NTL      -0.106400
      5 C06         54.8530    45.3570   154.9760 c6         1 NTL       0.170500
      6 C08         55.0980    46.6630   155.7380 c6         1 NTL       0.101300
      7 C10         55.1910    47.0380   158.1110 c6         1 NTL       0.370300
      8 C12         53.6310    45.4660   158.9370 c2         1 NTL       0.078900
      9 C13         52.1750    45.1170   158.9190 c3         1 NTL       0.198000
     10 C15         54.5980    44.7110   159.4540 c2         1 NTL      -0.307200
     11 C16         56.0220    45.1670   159.5340 c6         1 NTL      -0.037200
     12 C17         56.1070    46.6690   159.2760 c6         1 NTL       0.087700
     13 C20         59.4950    48.3710   159.2700 c3         1 NTL      -0.181100
     14 C22         56.0460    47.5760   154.9610 c6         1 NTL       0.151300
     15 C24         55.4540    47.9190   153.5970 c6         1 NTL       0.193300
     16 C26         55.9410    49.7560   152.1280 c6         1 NTL       0.354300
     17 C28         57.4500    51.4100   152.8910 c6         1 NTL       0.135600
     18 C29         58.0750    51.6550   151.5210 c6         1 NTL       0.109000
     19 C30         59.5010    52.1650   151.6890 c3         1 NTL      -0.122100
     20 C32         58.0110    50.3740   150.6420 c6         1 NTL       0.208500
     21 C35         56.5900    49.7650   150.7290 c6         1 NTL       0.181300
     22 N03         54.6360    46.9440   151.4750 n7         1 NTL      -0.876400
     23 N07         54.0410    44.3790   155.6720 n8         1 NTL      -0.995200
     24 N14         51.5930    45.2620   157.5890 n8         1 NTL      -1.002200
     25 N18         57.4560    47.1040   159.0210 ns         1 NTL      -0.508900
     26 N33         59.0990    49.4280   150.7600 n7         1 NTL      -0.865400
     27 O09         55.6670    46.3550   157.0000 os         1 NTL      -0.491000
     28 O11         53.8560    46.7010   158.4050 os         1 NTL      -0.374100
     29 O21         57.5640    48.6810   160.6400 o          1 NTL      -0.600100
     30 O23         56.2910    48.7800   155.6480 oh         1 NTL      -0.705000
     31 O25         56.4010    48.6860   152.8920 os         1 NTL      -0.471000
     32 O27         56.1120    50.9710   152.7890 os         1 NTL      -0.449000
     33 O31         57.3000    52.6110   150.8110 oh         1 NTL      -0.715000
     34 O36         56.5560    48.5050   150.1300 oh         1 NTL      -0.729000
     35 H1          51.9380    48.2580   149.8900 hc         1 NTL       0.042700
     36 H2          53.6120    48.7910   149.7400 hc         1 NTL       0.042700
     37 H3          53.1490    47.1700   149.2200 hc         1 NTL       0.042700
     38 H4          53.0900    48.2020   152.1010 h1         1 NTL       0.033700
     39 H5          52.5330    46.6180   151.6100 h1         1 NTL       0.033700
     40 H6          56.0890    46.1250   152.6590 h1         1 NTL       0.073700
     41 H7          53.2530    46.1620   153.7950 hc         1 NTL       0.056200
     42 H8          54.0630    44.7860   153.0610 hc         1 NTL       0.056200
     43 H9          55.8310    44.8930   154.7900 h1         1 NTL       0.062700
     44 H10         54.1320    47.1730   155.8670 h1         1 NTL       0.062700
     45 H11         55.1750    48.1200   157.9490 h2         1 NTL       0.092700
     46 H13         51.6620    45.7270   159.6770 h1         1 NTL       0.047200
     47 H14         52.0710    44.0800   159.2380 h1         1 NTL       0.047200
     48 H15         54.3390    43.7340   159.8410 ha         1 NTL       0.191000
     49 H17         56.4360    44.9510   160.5210 hc         1 NTL       0.060200
     50 H18         56.6430    44.6190   158.8180 hc         1 NTL       0.060200
     51 H19         55.7510    47.2080   160.1550 h1         1 NTL       0.104700
     52 H20         60.1760    48.2300   160.1090 hc         1 NTL       0.062367
     53 H21         59.8340    47.7520   158.4410 hc         1 NTL       0.062367
     54 H22         59.5660    49.4170   158.9690 hc         1 NTL       0.062367
     55 H23         56.9870    47.0290   154.7960 h1         1 NTL       0.047700
     56 H24         54.5330    48.4980   153.7630 h1         1 NTL       0.053700
     57 H25         54.8560    49.6720   151.9880 h2         1 NTL       0.063700
     58 H26         58.0590    50.7120   153.4740 h1         1 NTL       0.052700
     59 H27         57.4200    52.3470   153.4570 h1         1 NTL       0.052700
     60 H28         59.4980    53.1250   152.2110 hc         1 NTL       0.042367
     61 H29         60.1220    51.4850   152.2710 hc         1 NTL       0.042367
     62 H30         59.9780    52.3150   150.7190 hc         1 NTL       0.042367
     63 H31         58.1050    50.7430   149.6140 h1         1 NTL       0.073700
     64 H32         60.2600    48.1000   151.8300 h1         1 NTL       0.027367
     65 H33         59.6460    49.3880   152.8550 h1         1 NTL       0.027367
     66 H34         58.5680    48.1110   152.2960 h1         1 NTL       0.027367
     67 H35         55.9550    50.4700   150.1720 h1         1 NTL       0.046700
     68 H36         54.7330    46.1100   150.9070 hn         1 NTL       0.424000
     69 H38         54.5020    44.1190   156.5360 hn         1 NTL       0.413500
     70 H39         53.1580    44.7860   155.9710 hn         1 NTL       0.413500
     71 H41         50.6670    44.8550   157.5920 hn         1 NTL       0.403000
     72 H42         51.4620    46.2430   157.3800 hn         1 NTL       0.403000
     73 H44         57.9540    46.6490   158.2720 hn         1 NTL       0.319500
     74 H45         59.9380    49.8600   150.4000 hn         1 NTL       0.412000
     75 H47         56.9800    48.6270   156.3020 ho         1 NTL       0.505000
     76 H48         57.2640    53.4230   151.3290 ho         1 NTL       0.502000
     77 H49         55.8490    47.9670   150.5570 ho         1 NTL       0.542000
     78 C19         58.0850    48.0750   159.7150 c          1 NTL       0.602100
     79 C34         59.3970    48.7460   151.9990 c3         1 NTL       0.165100
@<TRIPOS>BOND
     1     1     2 1   
     2     1    35 1   
     3     1    36 1   
     4     1    37 1   
     5     2    22 1   
     6     2    38 1   
     7     2    39 1   
     8     3     4 1   
     9     3    15 1   
    10     3    22 1   
    11     3    40 1   
    12     4     5 1   
    13     4    41 1   
    14     4    42 1   
    15     5     6 1   
    16     5    23 1   
    17     5    43 1   
    18     6    14 1   
    19     6    27 1   
    20     6    44 1   
    21     7    12 1   
    22     7    27 1   
    23     7    28 1   
    24     7    45 1   
    25     8     9 1   
    26     8    10 2   
    27     8    28 1   
    28     9    24 1   
    29     9    46 1   
    30     9    47 1   
    31    10    11 1   
    32    10    48 1   
    33    11    12 1   
    34    11    49 1   
    35    11    50 1   
    36    12    25 1   
    37    12    51 1   
    38    13    52 1   
    39    13    53 1   
    40    13    54 1   
    41    13    78 1   
    42    14    15 1   
    43    14    30 1   
    44    14    55 1   
    45    15    31 1   
    46    15    56 1   
    47    16    21 1   
    48    16    31 1   
    49    16    32 1   
    50    16    57 1   
    51    17    18 1   
    52    17    32 1   
    53    17    58 1   
    54    17    59 1   
    55    18    19 1   
    56    18    20 1   
    57    18    33 1   
    58    19    60 1   
    59    19    61 1   
    60    19    62 1   
    61    20    21 1   
    62    20    26 1   
    63    20    63 1   
    64    21    34 1   
    65    21    67 1   
    66    22    68 1   
    67    23    69 1   
    68    23    70 1   
    69    24    71 1   
    70    24    72 1   
    71    25    73 1   
    72    25    78 1   
    73    26    74 1   
    74    26    79 1   
    75    29    78 2   
    76    30    75 1   
    77    33    76 1   
    78    34    77 1   
    79    64    79 1   
    80    65    79 1   
    81    66    79 1   
@<TRIPOS>SUBSTRUCTURE
     1 NTL         1 TEMP              0 ****  ****    0 ROOT
