@<TRIPOS>MOLECULE
NTM
   15    15     1     0     0
SMALL
No Charge or Current Charge


@<TRIPOS>ATOM
      1 N1          -0.8870    -0.1350    -1.7940 nb         1 NTM      -0.692000
      2 C2          -0.5420    -0.0760    -0.4620 ca         1 NTM       0.327500
      3 C3           0.8110     0.0700    -0.0670 ca         1 NTM      -0.140600
      4 C4           1.8190     0.1230    -1.0510 ca         1 NTM      -0.098000
      5 C5           1.4440     0.0470    -2.3990 ca         1 NTM      -0.237000
      6 C6           0.0860    -0.0740    -2.7240 ca         1 NTM       0.274900
      7 C7          -1.6680    -0.1910     0.6040 c          1 NTM       0.645500
      8 O1          -1.5400    -0.9990     1.5200 o          1 NTM      -0.728500
      9 O2          -2.7030     0.4570     0.4560 o          1 NTM      -0.728500
     10 C8           1.1670     0.2150     1.3790 c          1 NTM       0.736600
     11 O3           0.7330     1.1870     1.9800 o          1 NTM      -0.734500
     12 O4           1.9950    -0.5540     1.8470 o          1 NTM      -0.734500
     13 H4           2.8640     0.2370    -0.7730 ha         1 NTM       0.093000
     14 H5           2.1930     0.0910    -3.1850 ha         1 NTM       0.060000
     15 H6          -0.2350    -0.1270    -3.7630 h4         1 NTM      -0.045900
@<TRIPOS>BOND
     1     1     2 ar  
     2     1     6 ar  
     3     2     3 ar  
     4     2     7 1   
     5     3     4 ar  
     6     3    10 1   
     7     4     5 ar  
     8     4    13 1   
     9     5     6 ar  
    10     5    14 1   
    11     6    15 1   
    12     7     8 1   
    13     7     9 1   
    14    10    11 1   
    15    10    12 1   
@<TRIPOS>SUBSTRUCTURE
     1 NTM         1 TEMP              0 ****  ****    0 ROOT
