@<TRIPOS>MOLECULE
NTM
   15    15     1     0     0
SMALL
abcg2


@<TRIPOS>ATOM
      1 N1          -0.8770    -0.1260    -1.7420 nb         1 NTM      -0.692000
      2 C2          -0.5220    -0.0420    -0.4610 ca         1 NTM       0.327500
      3 C3           0.8110     0.0850    -0.0560 ca         1 NTM      -0.140600
      4 C4           1.7860     0.1050    -1.0430 ca         1 NTM      -0.098000
      5 C5           1.4170     0.0290    -2.3790 ca         1 NTM      -0.237000
      6 C6           0.0700    -0.0890    -2.6730 ca         1 NTM       0.274900
      7 C7          -1.6550    -0.1800     0.5430 c          1 NTM       0.645500
      8 O1          -1.5440    -1.1240     1.3460 o          1 NTM      -0.728500
      9 O2          -2.5990     0.6220     0.4340 o          1 NTM      -0.728500
     10 C8           1.2040     0.2480     1.4000 c          1 NTM       0.736600
     11 O3           0.5410     1.0700     2.0580 o          1 NTM      -0.734500
     12 O4           2.1810    -0.4200     1.7880 o          1 NTM      -0.734500
     13 H4           2.8310     0.1960    -0.7720 ha         1 NTM       0.093000
     14 H5           2.1530     0.0560    -3.1710 ha         1 NTM       0.060000
     15 H6          -0.2610    -0.1590    -3.7040 h4         1 NTM      -0.045900
@<TRIPOS>BOND
     1     1     2 ar  
     2     1     6 ar  
     3     2     3 ar  
     4     2     7 1   
     5     3     4 ar  
     6     3    10 1   
     7     4     5 ar  
     8     4    13 1   
     9     5     6 ar  
    10     5    14 1   
    11     6    15 1   
    12     7     8 1   
    13     7     9 1   
    14    10    11 1   
    15    10    12 1   
@<TRIPOS>SUBSTRUCTURE
     1 NTM         1 TEMP              0 ****  ****    0 ROOT
