@<TRIPOS>MOLECULE
NTN
   16    16     1     0     0
SMALL
abcg2


@<TRIPOS>ATOM
      1 NZ           1.9670     1.5770    -0.0450 nv         1 NTN      -1.074200
      2 CI1          2.4080     0.8410     1.0150 ce         1 NTN       0.654800
      3 CI2          1.4010    -0.0850     1.6070 ca         1 NTN      -0.104900
      4 NI1          3.5870     0.8320     1.5020 n2         1 NTN      -0.819100
      5 CI3          0.3150    -0.5640     0.8830 ca         1 NTN      -0.134500
      6 CI4         -0.5730    -1.4330     1.5020 ca         1 NTN       0.326900
      7 NI2         -0.4490    -1.8360     2.7600 nb         1 NTN      -0.656000
      8 CI5          0.5920    -1.3780     3.4480 ca         1 NTN       0.326900
      9 CI6          1.5380    -0.5140     2.9230 ca         1 NTN      -0.134500
     10 HZ1          2.5740     2.3060    -0.3850 hn         1 NTN       0.463000
     11 HZ2          0.9900     1.8130    -0.0930 hn         1 NTN       0.463000
     12 H2           4.1830     1.5140     1.0400 hn         1 NTN       0.374400
     13 H3           0.1520    -0.2940    -0.1520 ha         1 NTN       0.136000
     14 H4          -1.4210    -1.8200     0.9480 h4         1 NTN       0.021100
     15 H5           0.6790    -1.7140     4.4750 h4         1 NTN       0.021100
     16 H6           2.3640    -0.1730     3.5310 ha         1 NTN       0.136000
@<TRIPOS>BOND
     1     1     2 1   
     2     1    10 1   
     3     1    11 1   
     4     2     3 1   
     5     2     4 2   
     6     3     5 ar  
     7     3     9 ar  
     8     4    12 1   
     9     5     6 ar  
    10     5    13 1   
    11     6     7 ar  
    12     6    14 1   
    13     7     8 ar  
    14     8     9 ar  
    15     8    15 1   
    16     9    16 1   
@<TRIPOS>SUBSTRUCTURE
     1 NTN         1 TEMP              0 ****  ****    0 ROOT
