@<TRIPOS>MOLECULE
NTN
   16    16     1     0     0
SMALL
No Charge or Current Charge


@<TRIPOS>ATOM
      1 NZ           2.0870     1.5590    -0.0800 nv         1 NTN      -1.074200
      2 CI1          2.4260     0.8530     1.0220 ce         1 NTN       0.654800
      3 CI2          1.4000    -0.0630     1.6280 ca         1 NTN      -0.104900
      4 NI1          3.5700     1.0500     1.5360 n2         1 NTN      -0.819100
      5 CI3          0.2850    -0.5410     0.8980 ca         1 NTN      -0.134500
      6 CI4         -0.6240    -1.4230     1.5090 ca         1 NTN       0.326900
      7 NI2         -0.4880    -1.8610     2.7810 nb         1 NTN      -0.656000
      8 CI5          0.5830    -1.4250     3.4820 ca         1 NTN       0.326900
      9 CI6          1.5410    -0.5450     2.9500 ca         1 NTN      -0.134500
     10 HZ1          2.5920     2.4260    -0.2210 hn         1 NTN       0.463000
     11 HZ2          1.0940     1.6050    -0.2800 hn         1 NTN       0.463000
     12 H2           4.1540     1.5240     0.8380 hn         1 NTN       0.374400
     13 H3           0.1160    -0.2540    -0.1360 ha         1 NTN       0.136000
     14 H4          -1.4870    -1.7960     0.9580 h4         1 NTN       0.021100
     15 H5           0.6780    -1.7950     4.5020 h4         1 NTN       0.021100
     16 H6           2.3790    -0.2400     3.5700 ha         1 NTN       0.136000
@<TRIPOS>BOND
     1     1     2 1   
     2     1    10 1   
     3     1    11 1   
     4     2     3 1   
     5     2     4 2   
     6     3     5 ar  
     7     3     9 ar  
     8     4    12 1   
     9     5     6 ar  
    10     5    13 1   
    11     6     7 ar  
    12     6    14 1   
    13     7     8 ar  
    14     8     9 ar  
    15     8    15 1   
    16     9    16 1   
@<TRIPOS>SUBSTRUCTURE
     1 NTN         1 TEMP              0 ****  ****    0 ROOT
