@<TRIPOS>MOLECULE
NTQ
   45    48     1     0     0
SMALL
No Charge or Current Charge


@<TRIPOS>ATOM
      1 C1          17.2530     2.5040     1.4610 c3         1 NTQ      -0.038800
      2 C2          16.1520     1.7010     0.8160 cc         1 NTQ      -0.079300
      3 C5          14.3430     0.8240    -0.1640 cd         1 NTQ       0.409900
      4 C6          14.9350     2.0170     0.2570 cd         1 NTQ      -0.236800
      5 C7          14.2950     3.3060     0.1000 cd         1 NTQ       0.069600
      6 C8          13.0370     3.2270    -0.4850 cc         1 NTQ      -0.314200
      7 C12         14.9050     4.6360     0.5420 c6         1 NTQ      -0.029500
      8 C15         14.8330     7.4770     1.5360 c6         1 NTQ       0.113700
      9 C16         15.1440     6.2880     2.4810 c6         1 NTQ      -0.090900
     10 C17         14.4710     4.9800     1.9920 c6         1 NTQ      -0.068400
     11 O20         14.1720    10.2600     1.0600 o          1 NTQ      -0.589100
     12 C21         16.0920    11.0050     2.2870 cx         1 NTQ      -0.289700
     13 C23         16.4110    12.2540     1.4840 cx         1 NTQ      -0.133400
     14 N3          16.1960     0.3080     0.6700 na         1 NTQ       0.016800
     15 N4          15.0690    -0.2420     0.0620 nc         1 NTQ      -0.564800
     16 C9          12.3910     1.9800    -0.9370 c          1 NTQ       0.573200
     17 O10         11.2860     1.9420    -1.4510 o          1 NTQ      -0.551000
     18 N11         13.1200     0.8450    -0.7410 ns         1 NTQ      -0.454400
     19 C13         14.5780     5.8270    -0.4050 c6         1 NTQ      -0.068400
     20 C14         15.2660     7.1260     0.0870 c6         1 NTQ      -0.090900
     21 N18         15.5270     8.6820     1.9990 ns         1 NTQ      -0.500900
     22 C22         17.4460    11.1710     1.6410 cx         1 NTQ       0.174000
     23 F24         18.5360    11.3940     2.4250 f          1 NTQ      -0.075500
     24 F25         17.7860    10.4120     0.5610 f          1 NTQ      -0.075500
     25 H1          16.8650     3.1560     2.2510 hc         1 NTQ       0.057367
     26 H2          18.0010     1.8480     1.9230 hc         1 NTQ       0.057367
     27 H3          17.7760     3.1220     0.7210 hc         1 NTQ       0.057367
     28 H4          12.4230     4.1030    -0.6440 ha         1 NTQ       0.208000
     29 H5          15.9940     4.5490     0.5220 hc         1 NTQ       0.052700
     30 H6          13.7490     7.6680     1.5510 h1         1 NTQ       0.078700
     31 H7          16.2300     6.1370     2.5500 hc         1 NTQ       0.047700
     32 H8          14.7960     6.5210     3.4970 hc         1 NTQ       0.047700
     33 H9          13.3780     5.0850     2.0380 hc         1 NTQ       0.052200
     34 H10         14.7290     4.1550     2.6700 hc         1 NTQ       0.052200
     35 H11         16.0430    11.1140     3.3660 hc         1 NTQ       0.102700
     36 H12         16.5700    13.1840     2.0250 hc         1 NTQ       0.108700
     37 H13         15.9540    12.3730     0.5040 hc         1 NTQ       0.108700
     38 H14         16.9650    -0.2880     0.9740 hn         1 NTQ       0.375000
     39 H15         12.6940    -0.0180    -1.0430 hn         1 NTQ       0.340500
     40 H16         13.4970     6.0070    -0.4550 hc         1 NTQ       0.052200
     41 H17         14.9090     5.5950    -1.4270 hc         1 NTQ       0.052200
     42 H18         16.3570     7.0100     0.0380 hc         1 NTQ       0.047700
     43 H19         15.0110     7.9530    -0.5890 hc         1 NTQ       0.047700
     44 H20         16.3650     8.5690     2.5550 hn         1 NTQ       0.311500
     45 C19         15.1650     9.9730     1.7120 c          1 NTQ       0.637100
@<TRIPOS>BOND
     1     1     2 1   
     2     1    25 1   
     3     1    26 1   
     4     1    27 1   
     5     2     4 2   
     6     2    14 1   
     7     3     4 1   
     8     3    15 2   
     9     3    18 1   
    10     4     5 1   
    11     5     6 2   
    12     5     7 1   
    13     6    16 1   
    14     6    28 1   
    15     7    10 1   
    16     7    19 1   
    17     7    29 1   
    18     8     9 1   
    19     8    20 1   
    20     8    21 1   
    21     8    30 1   
    22     9    10 1   
    23     9    31 1   
    24     9    32 1   
    25    10    33 1   
    26    10    34 1   
    27    11    45 2   
    28    12    13 1   
    29    12    22 1   
    30    12    35 1   
    31    12    45 1   
    32    13    22 1   
    33    13    36 1   
    34    13    37 1   
    35    14    15 1   
    36    14    38 1   
    37    16    17 2   
    38    16    18 1   
    39    18    39 1   
    40    19    20 1   
    41    19    40 1   
    42    19    41 1   
    43    20    42 1   
    44    20    43 1   
    45    21    44 1   
    46    21    45 1   
    47    22    23 1   
    48    22    24 1   
@<TRIPOS>SUBSTRUCTURE
     1 NTQ         1 TEMP              0 ****  ****    0 ROOT
