@<TRIPOS>MOLECULE
NTQ
   45    48     1     0     0
SMALL
bcc


@<TRIPOS>ATOM
      1 C1          17.1030     2.3410     1.7630 c3         1 NTQ      -0.038800
      2 C2          15.9760     1.6230     1.1130 cc         1 NTQ      -0.028600
      3 C5          14.1930     0.8600     0.0620 cd         1 NTQ       0.475200
      4 C6          14.8530     2.0570     0.4060 cd         1 NTQ      -0.302100
      5 C7          14.3050     3.3110    -0.0080 cd         1 NTQ       0.069600
      6 C8          13.1530     3.2700    -0.7270 cc         1 NTQ      -0.264200
      7 C12         14.9700     4.5960     0.4000 c6         1 NTQ      -0.029500
      8 C15         15.0710     7.3980     1.3360 c6         1 NTQ       0.113700
      9 C16         15.2380     6.2340     2.3060 c6         1 NTQ      -0.090900
     10 C17         14.5130     4.9890     1.8120 c6         1 NTQ      -0.068400
     11 O20         14.5800    10.1460     0.8240 o          1 NTQ      -0.589100
     12 C21         16.4470    10.8130     2.1530 cx         1 NTQ      -0.289700
     13 C23         15.9840    12.2730     2.2570 cx         1 NTQ      -0.133400
     14 N3          15.8840     0.2910     1.1270 na         1 NTQ       0.016400
     15 N4          14.8130    -0.2140     0.4950 nc         1 NTQ      -0.564800
     16 C9          12.4520     2.0420    -1.0800 c          1 NTQ       0.715700
     17 O10         11.4050     2.0230    -1.7180 o          1 NTQ      -0.626500
     18 N11         13.0310     0.8730    -0.6520 ns         1 NTQ      -0.521400
     19 C13         14.7500     5.7670    -0.5560 c6         1 NTQ      -0.068400
     20 C14         15.5070     7.0000    -0.0740 c6         1 NTQ      -0.090900
     21 N18         15.8120     8.5420     1.8340 ns         1 NTQ      -0.567900
     22 C22         17.0370    11.8900     1.3240 cx         1 NTQ       0.416600
     23 F24         18.3120    12.2510     1.5570 f          1 NTQ      -0.196800
     24 F25         16.8210    11.9150    -0.0010 f          1 NTQ      -0.196800
     25 H1          16.7420     3.0420     2.5140 hc         1 NTQ       0.057367
     26 H2          17.7760     1.6440     2.2600 hc         1 NTQ       0.057367
     27 H3          17.6850     2.9060     1.0350 hc         1 NTQ       0.057367
     28 H4          12.6820     4.1790    -1.0730 ha         1 NTQ       0.158000
     29 H5          16.0500     4.4140     0.4380 hc         1 NTQ       0.052700
     30 H6          14.0140     7.6760     1.3070 h1         1 NTQ       0.078700
     31 H7          16.3050     6.0100     2.4220 hc         1 NTQ       0.047700
     32 H8          14.8640     6.5150     3.2920 hc         1 NTQ       0.047700
     33 H9          13.4330     5.1710     1.7940 hc         1 NTQ       0.052200
     34 H10         14.6740     4.1680     2.5150 hc         1 NTQ       0.052200
     35 H11         17.0690    10.4550     2.9660 hc         1 NTQ       0.102700
     36 H12         16.2560    12.8070     3.1580 hc         1 NTQ       0.108700
     37 H13         15.0060    12.5010     1.8530 hc         1 NTQ       0.108700
     38 H14         16.5480    -0.3440     1.5440 hn         1 NTQ       0.324700
     39 H15         12.5690     0.0010    -0.8710 hn         1 NTQ       0.340500
     40 H16         13.6840     6.0060    -0.6200 hc         1 NTQ       0.052200
     41 H17         15.0720     5.4990    -1.5640 hc         1 NTQ       0.052200
     42 H18         16.5830     6.7960    -0.0720 hc         1 NTQ       0.047700
     43 H19         15.3410     7.8310    -0.7620 hc         1 NTQ       0.047700
     44 H20         16.6310     8.3580     2.3930 hn         1 NTQ       0.311500
     45 C19         15.5200     9.8150     1.5320 c          1 NTQ       0.704100
@<TRIPOS>BOND
     1     1     2 1   
     2     1    25 1   
     3     1    26 1   
     4     1    27 1   
     5     2     4 2   
     6     2    14 1   
     7     3     4 1   
     8     3    15 2   
     9     3    18 1   
    10     4     5 1   
    11     5     6 2   
    12     5     7 1   
    13     6    16 1   
    14     6    28 1   
    15     7    10 1   
    16     7    19 1   
    17     7    29 1   
    18     8     9 1   
    19     8    20 1   
    20     8    21 1   
    21     8    30 1   
    22     9    10 1   
    23     9    31 1   
    24     9    32 1   
    25    10    33 1   
    26    10    34 1   
    27    11    45 2   
    28    12    13 1   
    29    12    22 1   
    30    12    35 1   
    31    12    45 1   
    32    13    22 1   
    33    13    36 1   
    34    13    37 1   
    35    14    15 1   
    36    14    38 1   
    37    16    17 2   
    38    16    18 1   
    39    18    39 1   
    40    19    20 1   
    41    19    40 1   
    42    19    41 1   
    43    20    42 1   
    44    20    43 1   
    45    21    44 1   
    46    21    45 1   
    47    22    23 1   
    48    22    24 1   
@<TRIPOS>SUBSTRUCTURE
     1 NTQ         1 TEMP              0 ****  ****    0 ROOT
