@<TRIPOS>MOLECULE
NTS
   27    28     1     0     0
SMALL
No Charge or Current Charge


@<TRIPOS>ATOM
      1 C1          -1.2280     1.2190     0.0120 ca         1 NTS      -0.264500
      2 C2          -2.2660     0.2580    -0.0010 ca         1 NTS       0.052000
      3 C3          -1.9890    -1.1200    -0.0170 ca         1 NTS      -0.274500
      4 C4          -0.6530    -1.5530    -0.0080 ca         1 NTS       0.006000
      5 C5           1.7250    -1.0950     0.0060 ca         1 NTS      -0.011000
      6 C6           2.8120    -0.2010     0.0110 ca         1 NTS      -0.266500
      7 C7           2.5500     1.1820     0.0270 ca         1 NTS      -0.044000
      8 C8           1.2290     1.6610     0.0250 ca         1 NTS      -0.127000
      9 C9           0.1260     0.7720     0.0110 ca         1 NTS       0.088000
     10 C10          0.3970    -0.6200     0.0020 ca         1 NTS      -0.109000
     11 O11         -1.0640     3.4790     1.2820 o          1 NTS      -0.718200
     12 O12         -1.0590     3.5070    -1.2060 o          1 NTS      -0.718200
     13 O13         -3.1600     2.9940     0.0280 o          1 NTS      -0.718200
     14 O31         -3.6900    -2.4140     1.4170 o          1 NTS      -0.719533
     15 O32         -4.3830    -1.6550    -0.8490 o          1 NTS      -0.719533
     16 O33         -2.7550    -3.5330    -0.6030 o          1 NTS      -0.719533
     17 O61          4.7800    -1.0110     1.4700 o          1 NTS      -0.722533
     18 O62          5.2990     0.2500    -0.6140 o          1 NTS      -0.722533
     19 O63          4.4310    -2.0900    -0.7460 o          1 NTS      -0.722533
     20 S1          -1.6890     3.0220     0.0310 s6         1 NTS       1.279100
     21 S3          -3.3790    -2.3370    -0.0190 s6         1 NTS       1.282100
     22 S6           4.5520    -0.8430     0.0270 s6         1 NTS       1.285100
     23 H2          -3.3070     0.5740     0.0060 ha         1 NTS       0.140000
     24 H4          -0.4270    -2.6170    -0.0070 ha         1 NTS       0.111000
     25 H5           1.9110    -2.1670     0.0060 ha         1 NTS       0.112000
     26 H7           3.3710     1.8950     0.0440 ha         1 NTS       0.099000
     27 H8           1.0920     2.7350     0.0360 ha         1 NTS       0.122000
@<TRIPOS>BOND
     1     1     2 ar  
     2     1     9 ar  
     3     1    20 1   
     4     2     3 ar  
     5     2    23 1   
     6     3     4 ar  
     7     3    21 1   
     8     4    10 ar  
     9     4    24 1   
    10     5     6 ar  
    11     5    10 ar  
    12     5    25 1   
    13     6     7 ar  
    14     6    22 1   
    15     7     8 ar  
    16     7    26 1   
    17     8     9 ar  
    18     8    27 1   
    19     9    10 ar  
    20    11    20 1   
    21    12    20 1   
    22    13    20 1   
    23    14    21 1   
    24    15    21 1   
    25    16    21 1   
    26    17    22 1   
    27    18    22 1   
    28    19    22 1   
@<TRIPOS>SUBSTRUCTURE
     1 NTS         1 TEMP              0 ****  ****    0 ROOT
