@<TRIPOS>MOLECULE
NTS
   27    28     1     0     0
SMALL
bcc


@<TRIPOS>ATOM
      1 C1          -1.2270     1.1820     0.0210 ca         1 NTS      -0.264500
      2 C2          -2.2390     0.2640    -0.0180 ca         1 NTS       0.034000
      3 C3          -1.9590    -1.1170    -0.0720 ca         1 NTS      -0.274500
      4 C4          -0.6690    -1.5570    -0.0990 ca         1 NTS      -0.012000
      5 C5           1.7350    -1.0980    -0.0810 ca         1 NTS      -0.029000
      6 C6           2.7770    -0.2200    -0.0100 ca         1 NTS      -0.266500
      7 C7           2.5250     1.1640     0.0810 ca         1 NTS      -0.062000
      8 C8           1.2440     1.6400     0.0920 ca         1 NTS      -0.145000
      9 C9           0.1350     0.7600     0.0190 ca         1 NTS       0.088000
     10 C10          0.4000    -0.6320    -0.0550 ca         1 NTS      -0.109000
     11 O11         -1.1000     3.4290     1.3370 o          1 NTS      -0.718200
     12 O12         -1.0250     3.5120    -1.1230 o          1 NTS      -0.718200
     13 O13         -3.1300     2.9730     0.0280 o          1 NTS      -0.718200
     14 O31         -3.7670    -2.2310     1.4010 o          1 NTS      -0.719533
     15 O32         -4.3320    -1.7300    -0.9390 o          1 NTS      -0.719533
     16 O33         -2.7820    -3.5720    -0.4140 o          1 NTS      -0.719533
     17 O61          4.8790    -0.6340     1.4370 o          1 NTS      -0.722533
     18 O62          5.2010     0.0970    -0.8870 o          1 NTS      -0.722533
     19 O63          4.4360    -2.1960    -0.4160 o          1 NTS      -0.722533
     20 S1          -1.6590     2.9270     0.0700 s6         1 NTS       1.279100
     21 S3          -3.3290    -2.2680    -0.0040 s6         1 NTS       1.282100
     22 S6           4.4710    -0.7940     0.0310 s6         1 NTS       1.285100
     23 H2          -3.2660     0.6020    -0.0140 ha         1 NTS       0.158000
     24 H4          -0.4480    -2.6160    -0.1550 ha         1 NTS       0.129000
     25 H5           1.9090    -2.1650    -0.1490 ha         1 NTS       0.130000
     26 H7           3.3480     1.8650     0.1260 ha         1 NTS       0.117000
     27 H8           1.0950     2.7060     0.1610 ha         1 NTS       0.140000
@<TRIPOS>BOND
     1     1     2 ar  
     2     1     9 ar  
     3     1    20 1   
     4     2     3 ar  
     5     2    23 1   
     6     3     4 ar  
     7     3    21 1   
     8     4    10 ar  
     9     4    24 1   
    10     5     6 ar  
    11     5    10 ar  
    12     5    25 1   
    13     6     7 ar  
    14     6    22 1   
    15     7     8 ar  
    16     7    26 1   
    17     8     9 ar  
    18     8    27 1   
    19     9    10 ar  
    20    11    20 1   
    21    12    20 1   
    22    13    20 1   
    23    14    21 1   
    24    15    21 1   
    25    16    21 1   
    26    17    22 1   
    27    18    22 1   
    28    19    22 1   
@<TRIPOS>SUBSTRUCTURE
     1 NTS         1 TEMP              0 ****  ****    0 ROOT
