@<TRIPOS>MOLECULE
NTU
   62    61     1     0     0
SMALL
bcc


@<TRIPOS>ATOM
      1 C2          27.6350    11.4980     9.4830 c3         1 NTU      -0.007500
      2 S1          28.0420    11.8020     7.7480 ss         1 NTU      -0.350300
      3 N1          27.7500    14.0930     6.3870 n2         1 NTU      -0.663400
      4 N2          27.6300    14.2870     8.6770 nv         1 NTU      -0.906300
      5 C1          27.8010    13.5550     7.5320 c2         1 NTU       0.666100
      6 C16         27.7980    13.3000     5.1840 c3         1 NTU       0.137300
      7 C15         27.2140    14.0630     4.0030 c3         1 NTU      -0.063400
      8 C3          25.7490    14.4330     4.1910 c3         1 NTU      -0.073900
      9 C4          25.1290    15.0740     2.9550 c3         1 NTU      -0.074400
     10 C5          23.6720    15.4750     3.1530 c3         1 NTU      -0.074400
     11 C6          23.0360    16.0740     1.9050 c3         1 NTU      -0.074900
     12 C7          21.5810    16.4770     2.1070 c3         1 NTU      -0.074400
     13 C8          20.9360    17.0640     0.8570 c3         1 NTU      -0.074400
     14 C9          19.4770    17.4530     1.0640 c3         1 NTU      -0.074900
     15 C10         18.8230    18.0480    -0.1760 c3         1 NTU      -0.074400
     16 C11         17.3590    18.4120     0.0390 c3         1 NTU      -0.074400
     17 C12         16.7010    19.0370    -1.1850 c3         1 NTU      -0.073900
     18 C13         15.2270    19.3550    -0.9670 c3         1 NTU      -0.063400
     19 C14         14.5800    20.0700    -2.1440 c3         1 NTU       0.137300
     20 C18         13.7320    22.8000    -5.8340 c3         1 NTU      -0.007500
     21 S2          13.6630    21.5530    -4.5270 ss         1 NTU      -0.350300
     22 N3          15.1690    21.3750    -2.3270 n2         1 NTU      -0.663400
     23 N4          15.4880    23.2830    -3.5720 nv         1 NTU      -0.906300
     24 C17         14.8640    22.0900    -3.3280 c2         1 NTU       0.666100
     25 H2'1        27.6470    10.4160     9.6030 h1         1 NTU       0.066033
     26 H2'2        26.6430    11.8680     9.7290 h1         1 NTU       0.066033
     27 H2'3        28.3730    11.9210    10.1620 h1         1 NTU       0.066033
     28 HN21        28.1710    14.0220     9.4850 hn         1 NTU       0.405050
     29 HN22        27.6430    15.2840     8.5180 hn         1 NTU       0.405050
     30 H11         27.2500    12.3520     5.2890 h1         1 NTU       0.045700
     31 H12         28.8350    13.0260     4.9520 h1         1 NTU       0.045700
     32 H21         27.3240    13.4400     3.1100 hc         1 NTU       0.040700
     33 H22         27.8030    14.9680     3.8220 hc         1 NTU       0.040700
     34 H31         25.1810    13.5330     4.4540 hc         1 NTU       0.043700
     35 H32         25.6550    15.1120     5.0440 hc         1 NTU       0.043700
     36 H41         25.2000    14.3770     2.1130 hc         1 NTU       0.034700
     37 H42         25.7120    15.9570     2.6680 hc         1 NTU       0.034700
     38 H51         23.6040    16.1950     3.9770 hc         1 NTU       0.037450
     39 H52         23.0950    14.5990     3.4680 hc         1 NTU       0.037450
     40 H61         23.1010    15.3510     1.0840 hc         1 NTU       0.036200
     41 H62         23.6140    16.9490     1.5850 hc         1 NTU       0.036200
     42 H71         21.0060    15.6020     2.4330 hc         1 NTU       0.036950
     43 H72         21.5160    17.2040     2.9230 hc         1 NTU       0.036950
     44 H81         21.0050    16.3390     0.0390 hc         1 NTU       0.036950
     45 H82         21.5040    17.9430     0.5340 hc         1 NTU       0.036950
     46 H91         18.9100    16.5700     1.3840 hc         1 NTU       0.036200
     47 H92         19.4080    18.1710     1.8890 hc         1 NTU       0.036200
     48 H101        18.9020    17.3370    -1.0060 hc         1 NTU       0.037450
     49 H102        19.3790    18.9400    -0.4870 hc         1 NTU       0.037450
     50 H111        17.2810    19.1070     0.8830 hc         1 NTU       0.034700
     51 H112        16.8050    17.5140     0.3340 hc         1 NTU       0.034700
     52 H121        17.2330    19.9530    -1.4580 hc         1 NTU       0.043700
     53 H122        16.7990    18.3580    -2.0400 hc         1 NTU       0.043700
     54 H131        15.1110    19.9750    -0.0720 hc         1 NTU       0.040700
     55 H132        14.6780    18.4280    -0.7740 hc         1 NTU       0.040700
     56 H141        13.5010    20.1530    -1.9570 h1         1 NTU       0.045700
     57 H142        14.6820    19.4450    -3.0440 h1         1 NTU       0.045700
     58 H4'1        13.3350    23.7590    -5.5080 h1         1 NTU       0.066033
     59 H4'2        13.0980    22.4250    -6.6350 h1         1 NTU       0.066033
     60 H4'3        14.7420    22.9190    -6.2180 h1         1 NTU       0.066033
     61 HN41        14.9450    24.0220    -3.9890 hn         1 NTU       0.405050
     62 HN42        16.0440    23.6080    -2.7940 hn         1 NTU       0.405050
@<TRIPOS>BOND
     1     1     2 1   
     2     1    25 1   
     3     1    26 1   
     4     1    27 1   
     5     2     5 1   
     6     3     5 2   
     7     3     6 1   
     8     4     5 1   
     9     4    28 1   
    10     4    29 1   
    11     6     7 1   
    12     6    30 1   
    13     6    31 1   
    14     7     8 1   
    15     7    32 1   
    16     7    33 1   
    17     8     9 1   
    18     8    34 1   
    19     8    35 1   
    20     9    10 1   
    21     9    36 1   
    22     9    37 1   
    23    10    11 1   
    24    10    38 1   
    25    10    39 1   
    26    11    12 1   
    27    11    40 1   
    28    11    41 1   
    29    12    13 1   
    30    12    42 1   
    31    12    43 1   
    32    13    14 1   
    33    13    44 1   
    34    13    45 1   
    35    14    15 1   
    36    14    46 1   
    37    14    47 1   
    38    15    16 1   
    39    15    48 1   
    40    15    49 1   
    41    16    17 1   
    42    16    50 1   
    43    16    51 1   
    44    17    18 1   
    45    17    52 1   
    46    17    53 1   
    47    18    19 1   
    48    18    54 1   
    49    18    55 1   
    50    19    22 1   
    51    19    56 1   
    52    19    57 1   
    53    20    21 1   
    54    20    58 1   
    55    20    59 1   
    56    20    60 1   
    57    21    24 1   
    58    22    24 2   
    59    23    24 1   
    60    23    61 1   
    61    23    62 1   
@<TRIPOS>SUBSTRUCTURE
     1 NTU         1 TEMP              0 ****  ****    0 ROOT
