@<TRIPOS>MOLECULE
NTU
   62    61     1     0     0
SMALL
No Charge or Current Charge


@<TRIPOS>ATOM
      1 C2          25.3500    13.1540     8.2090 c3         1 NTU       0.040400
      2 S1          26.5780    12.5470     6.9600 ss         1 NTU      -0.398200
      3 N1          28.3560    14.1980     5.7070 n2         1 NTU      -0.663400
      4 N2          27.8670    14.6290     7.8980 nv         1 NTU      -1.016700
      5 C1          27.6980    13.9220     6.7610 c2         1 NTU       0.666100
      6 C16         28.2630    13.4330     4.4490 c3         1 NTU       0.137300
      7 C15         27.4950    14.2310     3.3700 c3         1 NTU      -0.063400
      8 C3          25.9930    14.4390     3.6850 c3         1 NTU      -0.073900
      9 C4          25.2370    15.1850     2.5640 c3         1 NTU      -0.074400
     10 C5          23.7400    15.3920     2.8810 c3         1 NTU      -0.074400
     11 C6          22.9820    16.1370     1.7600 c3         1 NTU      -0.074900
     12 C7          21.4850    16.3440     2.0770 c3         1 NTU      -0.074400
     13 C8          20.7270    17.0890     0.9570 c3         1 NTU      -0.074400
     14 C9          19.2300    17.2970     1.2740 c3         1 NTU      -0.074900
     15 C10         18.4720    18.0410     0.1530 c3         1 NTU      -0.074400
     16 C11         16.9750    18.2490     0.4700 c3         1 NTU      -0.074400
     17 C12         16.2180    18.9930    -0.6510 c3         1 NTU      -0.073900
     18 C13         14.7170    19.2040    -0.3350 c3         1 NTU      -0.063400
     19 C14         13.9230    19.8930    -1.4690 c3         1 NTU       0.137300
     20 C18         17.1670    21.5260    -4.5530 c3         1 NTU       0.040400
     21 S2          15.5910    20.7110    -4.0130 ss         1 NTU      -0.398200
     22 N3          14.3580    21.2900    -1.6470 n2         1 NTU      -0.663400
     23 N4          15.3730    23.0070    -2.7650 nv         1 NTU      -1.016700
     24 C17         15.0490    21.7040    -2.6320 c2         1 NTU       0.666100
     25 H2'1        24.5480    12.4130     8.3250 h1         1 NTU       0.066033
     26 H2'2        24.9120    14.1020     7.8700 h1         1 NTU       0.066033
     27 H2'3        25.8330    13.3040     9.1830 h1         1 NTU       0.066033
     28 HN21        27.8420    14.0530     8.7280 hn         1 NTU       0.460250
     29 HN22        28.6620    15.2530     7.8440 hn         1 NTU       0.460250
     30 H11         27.7720    12.4610     4.5800 h1         1 NTU       0.045700
     31 H12         29.2730    13.2230     4.0720 h1         1 NTU       0.045700
     32 H21         27.5830    13.6920     2.4190 hc         1 NTU       0.040700
     33 H22         27.9790    15.2050     3.2240 hc         1 NTU       0.040700
     34 H31         25.5220    13.4620     3.8500 hc         1 NTU       0.043700
     35 H32         25.8900    15.0050     4.6190 hc         1 NTU       0.043700
     36 H41         25.3320    14.6200     1.6280 hc         1 NTU       0.034700
     37 H42         25.7090    16.1610     2.3990 hc         1 NTU       0.034700
     38 H51         23.6450    15.9570     3.8170 hc         1 NTU       0.037450
     39 H52         23.2680    14.4150     3.0470 hc         1 NTU       0.037450
     40 H61         23.0770    15.5720     0.8240 hc         1 NTU       0.036200
     41 H62         23.4540    17.1140     1.5940 hc         1 NTU       0.036200
     42 H71         21.0130    15.3680     2.2440 hc         1 NTU       0.036950
     43 H72         21.3900    16.9100     3.0130 hc         1 NTU       0.036950
     44 H81         20.8220    16.5240     0.0210 hc         1 NTU       0.036950
     45 H82         21.1990    18.0660     0.7910 hc         1 NTU       0.036950
     46 H91         18.7580    16.3200     1.4400 hc         1 NTU       0.036200
     47 H92         19.1350    17.8620     2.2100 hc         1 NTU       0.036200
     48 H101        18.5670    17.4760    -0.7830 hc         1 NTU       0.037450
     49 H102        18.9440    19.0180    -0.0130 hc         1 NTU       0.037450
     50 H111        16.8800    18.8150     1.4060 hc         1 NTU       0.034700
     51 H112        16.5030    17.2720     0.6370 hc         1 NTU       0.034700
     52 H121        16.6970    19.9660    -0.8170 hc         1 NTU       0.043700
     53 H122        16.3120    18.4270    -1.5870 hc         1 NTU       0.043700
     54 H131        14.6140    19.7880     0.5880 hc         1 NTU       0.040700
     55 H132        14.2580    18.2270    -0.1410 hc         1 NTU       0.040700
     56 H141        12.8560    19.8710    -1.2080 h1         1 NTU       0.045700
     57 H142        14.0300    19.2960    -2.3830 h1         1 NTU       0.045700
     58 H4'1        16.9660    22.5290    -4.9510 h1         1 NTU       0.066033
     59 H4'2        17.6410    20.9250    -5.3390 h1         1 NTU       0.066033
     60 H4'3        17.8550    21.6050    -3.7010 h1         1 NTU       0.066033
     61 HN41        15.3350    23.3270    -3.7230 hn         1 NTU       0.460250
     62 HN42        14.8730    23.5930    -2.1080 hn         1 NTU       0.460250
@<TRIPOS>BOND
     1     1     2 1   
     2     1    25 1   
     3     1    26 1   
     4     1    27 1   
     5     2     5 1   
     6     3     5 2   
     7     3     6 1   
     8     4     5 1   
     9     4    28 1   
    10     4    29 1   
    11     6     7 1   
    12     6    30 1   
    13     6    31 1   
    14     7     8 1   
    15     7    32 1   
    16     7    33 1   
    17     8     9 1   
    18     8    34 1   
    19     8    35 1   
    20     9    10 1   
    21     9    36 1   
    22     9    37 1   
    23    10    11 1   
    24    10    38 1   
    25    10    39 1   
    26    11    12 1   
    27    11    40 1   
    28    11    41 1   
    29    12    13 1   
    30    12    42 1   
    31    12    43 1   
    32    13    14 1   
    33    13    44 1   
    34    13    45 1   
    35    14    15 1   
    36    14    46 1   
    37    14    47 1   
    38    15    16 1   
    39    15    48 1   
    40    15    49 1   
    41    16    17 1   
    42    16    50 1   
    43    16    51 1   
    44    17    18 1   
    45    17    52 1   
    46    17    53 1   
    47    18    19 1   
    48    18    54 1   
    49    18    55 1   
    50    19    22 1   
    51    19    56 1   
    52    19    57 1   
    53    20    21 1   
    54    20    58 1   
    55    20    59 1   
    56    20    60 1   
    57    21    24 1   
    58    22    24 2   
    59    23    24 1   
    60    23    61 1   
    61    23    62 1   
@<TRIPOS>SUBSTRUCTURE
     1 NTU         1 TEMP              0 ****  ****    0 ROOT
