@<TRIPOS>MOLECULE
NTV
   30    31     1     0     0
SMALL
No Charge or Current Charge


@<TRIPOS>ATOM
      1 N1          -0.6340     0.3150    -0.2010 ns         1 NTV      -0.170000
      2 C4           3.1280    -1.5790     0.3570 ca         1 NTV      -0.116000
      3 C5           1.9560    -2.3440     0.3800 ca         1 NTV      -0.088000
      4 C6           0.7120    -1.7240     0.1910 ca         1 NTV      -0.108000
      5 C7           0.6240    -0.3320    -0.0370 ca         1 NTV      -0.025000
      6 C8          -1.9020    -0.1760    -0.4940 c          1 NTV       0.580100
      7 C10         -3.3410     1.4220     0.9290 c5         1 NTV      -0.108400
      8 C11         -4.3880     0.3130     1.2240 c5         1 NTV      -0.113400
      9 C12         -5.0000     0.0220    -0.1800 c5         1 NTV       0.155600
     10 C2           1.8140     0.4450    -0.0640 ca         1 NTV      -0.097300
     11 C3           3.0620    -0.1940     0.1420 ca         1 NTV       0.137000
     12 C9          -2.8970     1.0410    -0.5090 c5         1 NTV       0.090300
     13 O1          -2.1550    -1.3460    -0.7690 o          1 NTV      -0.555100
     14 O2          -4.1650     0.7190    -1.1370 os         1 NTV      -0.432000
     15 Cl1          4.5750     0.7160     0.1560 cl         1 NTV      -0.208000
     16 H1          -0.5980     1.3160    -0.0580 hn         1 NTV       0.152000
     17 H2           4.0920    -2.0570     0.5130 ha         1 NTV       0.131000
     18 H3           2.0090    -3.4160     0.5560 ha         1 NTV       0.121000
     19 H4          -0.1790    -2.3430     0.2440 ha         1 NTV       0.134000
     20 H5          -3.8010     2.4170     0.9420 hc         1 NTV       0.060700
     21 H6          -2.5170     1.4340     1.6530 hc         1 NTV       0.060700
     22 H7           1.8130     2.5060     0.6500 hc         1 NTV       0.049033
     23 H8           2.6020     2.3020    -0.9220 hc         1 NTV       0.049033
     24 H9           0.8590     2.2850    -0.8250 hc         1 NTV       0.049033
     25 H10         -3.9160    -0.5870     1.6350 hc         1 NTV       0.061700
     26 H11         -5.1450     0.6370     1.9480 hc         1 NTV       0.061700
     27 H12         -5.0010    -1.0520    -0.4070 h1         1 NTV       0.052200
     28 H13         -6.0290     0.3970    -0.2690 h1         1 NTV       0.052200
     29 H14         -2.4250     1.8790    -1.0390 h1         1 NTV       0.074700
     30 C1           1.7650     1.9620    -0.3010 c3         1 NTV      -0.049800
@<TRIPOS>BOND
     1     1     5 1   
     2     1     6 1   
     3     1    16 1   
     4     2     3 ar  
     5     2    11 ar  
     6     2    17 1   
     7     3     4 ar  
     8     3    18 1   
     9     4     5 ar  
    10     4    19 1   
    11     5    10 ar  
    12     6    12 1   
    13     6    13 2   
    14     7     8 1   
    15     7    12 1   
    16     7    20 1   
    17     7    21 1   
    18     8     9 1   
    19     8    25 1   
    20     8    26 1   
    21     9    14 1   
    22     9    27 1   
    23     9    28 1   
    24    10    11 ar  
    25    10    30 1   
    26    11    15 1   
    27    12    14 1   
    28    12    29 1   
    29    22    30 1   
    30    23    30 1   
    31    24    30 1   
@<TRIPOS>SUBSTRUCTURE
     1 NTV         1 TEMP              0 ****  ****    0 ROOT
