@<TRIPOS>MOLECULE
NTV
   30    31     1     0     0
SMALL
bcc


@<TRIPOS>ATOM
      1 N1          -0.5290     0.5570     0.1160 ns         1 NTV      -0.496100
      2 C4           3.0440    -1.5980     0.3530 ca         1 NTV      -0.134000
      3 C5           1.8480    -2.2030     0.6970 ca         1 NTV      -0.106000
      4 C6           0.6600    -1.4970     0.6200 ca         1 NTV      -0.126000
      5 C7           0.6650    -0.1800     0.1770 ca         1 NTV       0.067600
      6 C8          -1.7130     0.1140    -0.3830 c          1 NTV       0.647100
      7 C10         -3.4380     1.1020     1.1560 c5         1 NTV      -0.108400
      8 C11         -4.4680    -0.0140     1.0230 c5         1 NTV      -0.113400
      9 C12         -4.9380     0.1460    -0.4190 c5         1 NTV       0.132400
     10 C2           1.8570     0.4600    -0.2000 ca         1 NTV      -0.097300
     11 C3           3.0320    -0.2800    -0.0790 ca         1 NTV       0.045400
     12 C9          -2.8410     1.1350    -0.2550 c5         1 NTV       0.067100
     13 O1          -1.8790    -0.9900    -0.8590 o          1 NTV      -0.555100
     14 O2          -3.8890     0.8080    -1.1240 os         1 NTV      -0.385600
     15 CL1          4.5620     0.4380    -0.4840 cl         1 NTV      -0.116400
     16 H1          -0.4830     1.5250     0.3990 hn         1 NTV       0.318500
     17 H2           3.9770    -2.1400     0.4280 ha         1 NTV       0.149000
     18 H3           1.8460    -3.2280     1.0440 ha         1 NTV       0.139000
     19 H4          -0.2640    -1.9650     0.9270 ha         1 NTV       0.152000
     20 H5          -3.9210     2.0580     1.3670 hc         1 NTV       0.060700
     21 H6          -2.6980     0.9270     1.9370 hc         1 NTV       0.060700
     22 H7           1.6400     2.5790     0.1190 hc         1 NTV       0.049033
     23 H8           2.7540     2.1670    -1.1690 hc         1 NTV       0.049033
     24 H9           1.0240     2.0100    -1.4270 hc         1 NTV       0.049033
     25 H10         -4.0090    -0.9910     1.1840 hc         1 NTV       0.061700
     26 H11         -5.2880     0.0850     1.7330 hc         1 NTV       0.061700
     27 H12         -5.1530    -0.8130    -0.8950 h1         1 NTV       0.052200
     28 H13         -5.8420     0.7600    -0.4740 h1         1 NTV       0.052200
     29 H14         -2.4620     2.1310    -0.5100 h1         1 NTV       0.074700
     30 C1           1.8210     1.8740    -0.6960 c3         1 NTV      -0.049800
@<TRIPOS>BOND
     1     1     5 1   
     2     1     6 1   
     3     1    16 1   
     4     2     3 ar  
     5     2    11 ar  
     6     2    17 1   
     7     3     4 ar  
     8     3    18 1   
     9     4     5 ar  
    10     4    19 1   
    11     5    10 ar  
    12     6    12 1   
    13     6    13 2   
    14     7     8 1   
    15     7    12 1   
    16     7    20 1   
    17     7    21 1   
    18     8     9 1   
    19     8    25 1   
    20     8    26 1   
    21     9    14 1   
    22     9    27 1   
    23     9    28 1   
    24    10    11 ar  
    25    10    30 1   
    26    11    15 1   
    27    12    14 1   
    28    12    29 1   
    29    22    30 1   
    30    23    30 1   
    31    24    30 1   
@<TRIPOS>SUBSTRUCTURE
     1 NTV         1 TEMP              0 ****  ****    0 ROOT
