@<TRIPOS>MOLECULE
NTW
   38    40     1     0     0
SMALL
No Charge or Current Charge


@<TRIPOS>ATOM
      1 C2          14.2190     9.6180     3.0730 c1         1 NTW       0.298900
      2 C3          15.1720     8.7650     2.3500 c3         1 NTW      -0.017300
      3 C4          14.5360     7.4970     1.6960 c6         1 NTW      -0.056700
      4 C6          15.5630     6.7740     0.7790 c6         1 NTW      -0.073900
      5 C7          14.9560     5.5100     0.1200 c6         1 NTW      -0.069400
      6 C8          14.4110     4.5280     1.1910 c6         1 NTW      -0.030500
      7 C11         13.9630     6.5040     2.7530 c6         1 NTW      -0.073900
      8 C12         13.8870     3.2590     0.5260 cc         1 NTW       0.098600
      9 C18         14.2030     0.9850    -0.2690 cd         1 NTW       0.049600
     10 C24         14.7180     2.0850     0.3220 cc         1 NTW      -0.255800
     11 N1          13.4760    10.3180     3.6360 n1         1 NTW      -0.463000
     12 C10         13.3530     5.2500     2.0750 c6         1 NTW      -0.069400
     13 C13         12.5820     3.1570     0.0540 cd         1 NTW      -0.347200
     14 C14         12.0220     1.9510    -0.5950 c          1 NTW       0.578200
     15 O15         10.8750     1.8740    -1.0010 o          1 NTW      -0.548000
     16 N16         12.9090     0.9130    -0.7070 ns         1 NTW      -0.373100
     17 N19         15.2220     0.0410    -0.3240 na         1 NTW      -0.044200
     18 N20         16.4040     0.5360     0.2280 nd         1 NTW      -0.511800
     19 C22         16.0760     1.7640     0.6050 cc         1 NTW       0.319300
     20 H1          15.9690     8.4750     3.0450 hc         1 NTW       0.069700
     21 H2          15.6460     9.3850     1.5800 hc         1 NTW       0.069700
     22 H3          13.7080     7.8510     1.0640 hc         1 NTW       0.060700
     23 H4          16.4510     6.4910     1.3620 hc         1 NTW       0.044450
     24 H5          15.9140     7.4590    -0.0050 hc         1 NTW       0.044450
     25 H6          14.1470     5.8010    -0.5640 hc         1 NTW       0.050200
     26 H7          15.7160     5.0140    -0.4990 hc         1 NTW       0.050200
     27 H8          15.2210     4.2740     1.8780 hc         1 NTW       0.060700
     28 H9          14.7560     6.1980     3.4500 hc         1 NTW       0.044450
     29 H10         13.1890     6.9930     3.3590 hc         1 NTW       0.044450
     30 H11         18.0990     2.2080     1.2020 hc         1 NTW       0.053367
     31 H12         17.1630     3.6270     0.7440 hc         1 NTW       0.053367
     32 H13         16.8700     2.8190     2.3090 hc         1 NTW       0.053367
     33 H14         12.4890     5.5690     1.4780 hc         1 NTW       0.050200
     34 H15         12.9720     4.5620     2.8420 hc         1 NTW       0.050200
     35 H16         11.8720     3.9690     0.1200 ha         1 NTW       0.211000
     36 H17         12.5490     0.0760    -1.1480 hn         1 NTW       0.330500
     37 H18         15.1570    -0.8990    -0.7120 hn         1 NTW       0.380000
     38 C23         17.1000     2.6590     1.2500 c3         1 NTW      -0.128400
@<TRIPOS>BOND
     1     1     2 1   
     2     1    11 3   
     3     2     3 1   
     4     2    20 1   
     5     2    21 1   
     6     3     4 1   
     7     3     7 1   
     8     3    22 1   
     9     4     5 1   
    10     4    23 1   
    11     4    24 1   
    12     5     6 1   
    13     5    25 1   
    14     5    26 1   
    15     6     8 1   
    16     6    12 1   
    17     6    27 1   
    18     7    12 1   
    19     7    28 1   
    20     7    29 1   
    21     8    10 1   
    22     8    13 2   
    23     9    10 2   
    24     9    16 1   
    25     9    17 1   
    26    10    19 1   
    27    12    33 1   
    28    12    34 1   
    29    13    14 1   
    30    13    35 1   
    31    14    15 2   
    32    14    16 1   
    33    16    36 1   
    34    17    18 1   
    35    17    37 1   
    36    18    19 2   
    37    19    38 1   
    38    30    38 1   
    39    31    38 1   
    40    32    38 1   
@<TRIPOS>SUBSTRUCTURE
     1 NTW         1 TEMP              0 ****  ****    0 ROOT
