@<TRIPOS>MOLECULE
NTW
   38    40     1     0     0
SMALL
bcc


@<TRIPOS>ATOM
      1 C2          14.2980     9.5270     2.9960 c1         1 NTW       0.209700
      2 C3          15.2370     8.6610     2.3000 c3         1 NTW      -0.017300
      3 C4          14.5550     7.4560     1.6400 c6         1 NTW      -0.056700
      4 C6          15.5880     6.6600     0.8500 c6         1 NTW      -0.073900
      5 C7          14.9830     5.4140     0.2180 c6         1 NTW      -0.069400
      6 C8          14.3060     4.5260     1.2730 c6         1 NTW      -0.030500
      7 C11         13.8570     6.5670     2.6670 c6         1 NTW      -0.073900
      8 C12         13.8100     3.2630     0.6250 cc         1 NTW       0.098600
      9 C18         14.2400     1.0850    -0.3280 cd         1 NTW       0.100300
     10 C24         14.7230     2.2040     0.3340 cc         1 NTW      -0.321100
     11 N1          13.5430    10.2070     3.5380 n1         1 NTW      -0.373800
     12 C10         13.2450     5.3290     2.0210 c6         1 NTW      -0.069400
     13 C13         12.5130     3.0920     0.2440 cd         1 NTW      -0.297200
     14 C14         12.0130     1.9190    -0.4420 c          1 NTW       0.720700
     15 O15         10.8480     1.7600    -0.7880 o          1 NTW      -0.623500
     16 N16         12.9530     0.9370    -0.7070 ns         1 NTW      -0.440100
     17 N19         15.2550     0.2360    -0.4870 na         1 NTW      -0.044600
     18 N20         16.3960     0.7280     0.0380 nd         1 NTW      -0.511800
     19 C22         16.1030     1.9050     0.5390 cc         1 NTW       0.384600
     20 H1          15.9900     8.3300     3.0210 hc         1 NTW       0.069700
     21 H2          15.7560     9.2670     1.5540 hc         1 NTW       0.069700
     22 H3          13.8030     7.8390     0.9410 hc         1 NTW       0.060700
     23 H4          16.4060     6.3650     1.5180 hc         1 NTW       0.044450
     24 H5          16.0320     7.2870     0.0730 hc         1 NTW       0.044450
     25 H6          14.2410     5.6950    -0.5360 hc         1 NTW       0.050200
     26 H7          15.7610     4.8580    -0.3110 hc         1 NTW       0.050200
     27 H8          15.0690     4.2420     2.0060 hc         1 NTW       0.060700
     28 H9          14.5810     6.2640     3.4320 hc         1 NTW       0.044450
     29 H10         13.0750     7.1260     3.1860 hc         1 NTW       0.044450
     30 H11         18.1050     2.1780     1.2020 hc         1 NTW       0.053367
     31 H12         17.3040     3.6760     0.7340 hc         1 NTW       0.053367
     32 H13         16.8980     2.9050     2.2600 hc         1 NTW       0.053367
     33 H14         12.4500     5.6430     1.3370 hc         1 NTW       0.050200
     34 H15         12.7730     4.7070     2.7850 hc         1 NTW       0.050200
     35 H16         11.7720     3.8560     0.4360 ha         1 NTW       0.161000
     36 H17         12.6450     0.1010    -1.1850 hn         1 NTW       0.330500
     37 H18         15.2530    -0.6660    -0.9350 hn         1 NTW       0.329700
     38 C23         17.1550     2.7100     1.2180 c3         1 NTW      -0.128400
@<TRIPOS>BOND
     1     1     2 1   
     2     1    11 3   
     3     2     3 1   
     4     2    20 1   
     5     2    21 1   
     6     3     4 1   
     7     3     7 1   
     8     3    22 1   
     9     4     5 1   
    10     4    23 1   
    11     4    24 1   
    12     5     6 1   
    13     5    25 1   
    14     5    26 1   
    15     6     8 1   
    16     6    12 1   
    17     6    27 1   
    18     7    12 1   
    19     7    28 1   
    20     7    29 1   
    21     8    10 1   
    22     8    13 2   
    23     9    10 2   
    24     9    16 1   
    25     9    17 1   
    26    10    19 1   
    27    12    33 1   
    28    12    34 1   
    29    13    14 1   
    30    13    35 1   
    31    14    15 2   
    32    14    16 1   
    33    16    36 1   
    34    17    18 1   
    35    17    37 1   
    36    18    19 2   
    37    19    38 1   
    38    30    38 1   
    39    31    38 1   
    40    32    38 1   
@<TRIPOS>SUBSTRUCTURE
     1 NTW         1 TEMP              0 ****  ****    0 ROOT
