@<TRIPOS>MOLECULE
NTX
   72    75     1     0     0
SMALL
No Charge or Current Charge


@<TRIPOS>ATOM
      1 N1          -3.6250     1.7760     0.2790 ns         1 NTX      -0.502900
      2 N3           8.3360     4.3740    -1.7450 nv         1 NTX      -1.078200
      3 C4           1.2510     1.1670     0.6070 ca         1 NTX       0.174600
      4 C5           0.1200     1.9880     0.4920 ca         1 NTX      -0.151500
      5 C6          -1.1830     1.4430     0.4440 ca         1 NTX      -0.077600
      6 C7          -2.3810     2.3710     0.3190 c          1 NTX       0.612700
      7 C8          -4.9060     2.4780     0.1410 c6         1 NTX       0.112700
      8 C10          5.3820     2.4980     2.0030 ca         1 NTX      -0.070500
      9 C13         -0.7690    -6.4020     2.1220 ca         1 NTX      -0.124500
     10 C15         -0.7460    -6.4990    -0.3260 ca         1 NTX      -0.148900
     11 C17          0.0710    -4.5030     0.8550 ca         1 NTX      -0.107800
     12 C20          6.5190     3.3830    -0.4370 ca         1 NTX      -0.148900
     13 C21          7.0070     3.8600     0.8040 ca         1 NTX      -0.081000
     14 C22          6.4440     3.4140     2.0120 ca         1 NTX      -0.124500
     15 C24         -6.5610     3.5110    -1.5220 c6         1 NTX      -0.088900
     16 C26         -7.4300     2.3010     0.5490 c6         1 NTX      -0.088900
     17 C28          7.0830     3.8710    -1.7390 ce         1 NTX       0.659800
     18 O1          -2.2620     3.5880     0.2590 o          1 NTX      -0.599100
     19 C23         -5.1890     2.8100    -1.3480 c6         1 NTX      -0.087900
     20 C25         -7.7070     2.6480    -0.9360 c6         1 NTX       0.151500
     21 N4          -8.9970     3.3480    -1.0690 n8         1 NTX      -0.986200
     22 C27         -6.0540     1.6050     0.7100 c6         1 NTX      -0.087900
     23 C9           3.7100     1.0400     0.7650 c3         1 NTX       0.214900
     24 C18          4.8700     2.0260     0.7810 ca         1 NTX      -0.107800
     25 N2           6.4820     3.7450    -2.8500 n2         1 NTX      -0.823600
     26 C19          5.4330     2.4770    -0.4290 ca         1 NTX      -0.037500
     27 C3           1.0990    -0.2320     0.6760 ca         1 NTX      -0.279000
     28 C2          -0.1920    -0.7950     0.6290 ca         1 NTX       0.174600
     29 C1          -1.3180     0.0350     0.5140 ca         1 NTX      -0.151500
     30 O3          -0.4090    -2.1560     0.6920 os         1 NTX      -0.338600
     31 C11          0.6660    -3.1020     0.8120 c3         1 NTX       0.214900
     32 C16         -0.2050    -5.1910    -0.3430 ca         1 NTX      -0.037500
     33 N5          -1.1630    -8.5470    -1.6000 nv         1 NTX      -1.078200
     34 N6          -1.1300    -6.6050    -2.7330 n2         1 NTX      -0.823600
     35 C14         -1.0400    -7.0890     0.9270 ca         1 NTX      -0.081000
     36 C12         -0.2110    -5.1150     2.0890 ca         1 NTX      -0.070500
     37 H1          -3.6430     0.7670     0.3370 hn         1 NTX       0.316500
     38 H2           8.8760     4.1770    -0.9100 hn         1 NTX       0.461250
     39 H3           8.8480     4.2920    -2.6150 hn         1 NTX       0.461250
     40 H4           0.2620     3.0650     0.4410 ha         1 NTX       0.141000
     41 H5          -4.8560     3.4160     0.7170 h1         1 NTX       0.073700
     42 H6           4.9520     2.1620     2.9450 ha         1 NTX       0.116500
     43 H7          -0.9980    -6.8670     3.0790 ha         1 NTX       0.117000
     44 H8           7.8140     4.5870     0.8440 ha         1 NTX       0.118000
     45 H9           6.8300     3.7870     2.9590 ha         1 NTX       0.117000
     46 H10         -6.5350     4.4920    -1.0280 hc         1 NTX       0.045700
     47 H11         -6.7430     3.7020    -2.5890 hc         1 NTX       0.045700
     48 H12         -7.4520     3.2130     1.1620 hc         1 NTX       0.045700
     49 H13         -8.2200     1.6430     0.9360 hc         1 NTX       0.045700
     50 H14         -4.3950     3.4580    -1.7440 hc         1 NTX       0.048700
     51 H15         -5.1670     1.8890    -1.9470 hc         1 NTX       0.048700
     52 H16         -7.7740     1.7110    -1.5120 h1         1 NTX       0.059700
     53 H17         -9.7270     2.7820    -0.6210 hn         1 NTX       0.390000
     54 H18         -8.9690     4.1990    -0.4960 hn         1 NTX       0.390000
     55 H20         -6.0730     0.6310     0.2010 hc         1 NTX       0.048700
     56 H21         -5.8710     1.3970     1.7740 hc         1 NTX       0.048700
     57 H22          3.7180     0.4500     1.6910 h1         1 NTX       0.041200
     58 H23          3.8280     0.3510    -0.0810 h1         1 NTX       0.041200
     59 H24          6.9680     4.3280    -3.5390 hn         1 NTX       0.371900
     60 H25          5.0230     2.1120    -1.3690 ha         1 NTX       0.140000
     61 H26          1.9690    -0.8710     0.7640 ha         1 NTX       0.119000
     62 H27         -2.2930    -0.4410     0.4810 ha         1 NTX       0.141000
     63 H28          1.2420    -2.9190     1.7290 h1         1 NTX       0.041200
     64 H29          1.3500    -3.0220    -0.0430 h1         1 NTX       0.041200
     65 H30          0.0110    -4.7050    -1.2930 ha         1 NTX       0.140000
     66 H31         -0.8040    -8.9910    -0.7630 hn         1 NTX       0.461250
     67 H32         -0.9420    -9.0230    -2.4670 hn         1 NTX       0.461250
     68 H33         -1.5490    -7.2530    -3.4090 hn         1 NTX       0.371900
     69 H34         -1.4930    -8.0760     0.9860 ha         1 NTX       0.118000
     70 H35         -0.0080    -4.5910     3.0200 ha         1 NTX       0.116500
     71 O2           2.4840     1.7820     0.6480 os         1 NTX      -0.338600
     72 C29         -1.0580    -7.2010    -1.6150 ce         1 NTX       0.659800
@<TRIPOS>BOND
     1     1     6 1   
     2     1     7 1   
     3     1    37 1   
     4     2    17 1   
     5     2    38 1   
     6     2    39 1   
     7     3     4 ar  
     8     3    27 ar  
     9     3    71 1   
    10     4     5 ar  
    11     4    40 1   
    12     5     6 1   
    13     5    29 ar  
    14     6    18 2   
    15     7    19 1   
    16     7    22 1   
    17     7    41 1   
    18     8    14 ar  
    19     8    24 ar  
    20     8    42 1   
    21     9    35 ar  
    22     9    36 ar  
    23     9    43 1   
    24    10    32 ar  
    25    10    35 ar  
    26    10    72 1   
    27    11    31 1   
    28    11    32 ar  
    29    11    36 ar  
    30    12    13 ar  
    31    12    17 1   
    32    12    26 ar  
    33    13    14 ar  
    34    13    44 1   
    35    14    45 1   
    36    15    19 1   
    37    15    20 1   
    38    15    46 1   
    39    15    47 1   
    40    16    20 1   
    41    16    22 1   
    42    16    48 1   
    43    16    49 1   
    44    17    25 2   
    45    19    50 1   
    46    19    51 1   
    47    20    21 1   
    48    20    52 1   
    49    21    53 1   
    50    21    54 1   
    51    22    55 1   
    52    22    56 1   
    53    23    24 1   
    54    23    57 1   
    55    23    58 1   
    56    23    71 1   
    57    24    26 ar  
    58    25    59 1   
    59    26    60 1   
    60    27    28 ar  
    61    27    61 1   
    62    28    29 ar  
    63    28    30 1   
    64    29    62 1   
    65    30    31 1   
    66    31    63 1   
    67    31    64 1   
    68    32    65 1   
    69    33    66 1   
    70    33    67 1   
    71    33    72 1   
    72    34    68 1   
    73    34    72 2   
    74    35    69 1   
    75    36    70 1   
@<TRIPOS>SUBSTRUCTURE
     1 NTX         1 TEMP              0 ****  ****    0 ROOT
