@<TRIPOS>MOLECULE
NTX
   72    75     1     0     0
SMALL
bcc


@<TRIPOS>ATOM
      1 N1          -3.5980     1.7760     0.2410 ns         1 NTX      -0.569900
      2 N3           8.6870     3.9070    -1.0920 nv         1 NTX      -0.967800
      3 C4           1.1440     1.1800     0.3160 ca         1 NTX       0.174600
      4 C5           0.0100     1.9600     0.1150 ca         1 NTX      -0.169500
      5 C6          -1.2330     1.3510     0.0220 ca         1 NTX      -0.077600
      6 C7          -2.4210     2.2390    -0.2030 c          1 NTX       0.679700
      7 C8          -4.8530     2.4840     0.0700 c6         1 NTX       0.112700
      8 C10          4.7620     2.8950     1.8930 ca         1 NTX      -0.088500
      9 C13         -0.5710    -6.2750     1.9380 ca         1 NTX      -0.142500
     10 C15         -0.6450    -6.3840    -0.4710 ca         1 NTX      -0.148900
     11 C17          0.1800    -4.3940     0.6350 ca         1 NTX      -0.107800
     12 C20          6.5400     3.2230    -0.2300 ca         1 NTX      -0.148900
     13 C21          6.6670     3.9950     0.9210 ca         1 NTX      -0.099000
     14 C22          5.7780     3.8320     1.9760 ca         1 NTX      -0.142500
     15 C24         -6.7790     2.9890    -1.4740 c6         1 NTX      -0.088900
     16 C26         -7.1670     2.7840     0.9900 c6         1 NTX      -0.088900
     17 C28          7.4630     3.3810    -1.3890 ce         1 NTX       0.659800
     18 O1          -2.2930     3.3290    -0.7460 o          1 NTX      -0.599100
     19 C23         -5.4520     2.2560    -1.3180 c6         1 NTX      -0.087900
     20 C25         -7.7800     2.5820    -0.3980 c6         1 NTX       0.151500
     21 N4          -9.0370     3.2890    -0.6000 n8         1 NTX      -0.875800
     22 C27         -5.8380     2.0550     1.1520 c6         1 NTX      -0.087900
     23 C9           3.5070     1.1180     0.6500 c3         1 NTX       0.191700
     24 C18          4.6200     2.1160     0.7460 ca         1 NTX      -0.107800
     25 N2           7.0380     3.0700    -2.5530 n2         1 NTX      -0.823600
     26 C19          5.5040     2.2920    -0.3070 ca         1 NTX      -0.055500
     27 C3           1.0420    -0.2080     0.4100 ca         1 NTX      -0.297000
     28 C2          -0.2120    -0.8070     0.3010 ca         1 NTX       0.174600
     29 C1          -1.3520    -0.0310     0.1070 ca         1 NTX      -0.169500
     30 O3          -0.4100    -2.1360     0.3690 os         1 NTX      -0.315400
     31 C11          0.7090    -2.9950     0.5570 c3         1 NTX       0.191700
     32 C16         -0.1260    -5.0930    -0.5250 ca         1 NTX      -0.055500
     33 N5          -1.0040    -8.4570    -1.6500 nv         1 NTX      -0.967800
     34 N6          -1.2060    -6.4020    -2.7850 n2         1 NTX      -0.823600
     35 C14         -0.8700    -6.9680     0.7740 ca         1 NTX      -0.099000
     36 C12         -0.0480    -4.9930     1.8700 ca         1 NTX      -0.088500
     37 H1          -3.6270     0.8920     0.7230 hn         1 NTX       0.316500
     38 H2           9.0680     3.7520    -0.1730 hn         1 NTX       0.406050
     39 H3           9.3800     3.9080    -1.8220 hn         1 NTX       0.406050
     40 H4           0.1050     3.0350     0.0380 ha         1 NTX       0.159000
     41 H5          -4.6540     3.5530     0.1910 h1         1 NTX       0.073700
     42 H6           4.0790     2.7630     2.7240 ha         1 NTX       0.134500
     43 H7          -0.7530    -6.7360     2.9000 ha         1 NTX       0.135000
     44 H8           7.4440     4.7440     1.0010 ha         1 NTX       0.136000
     45 H9           5.8830     4.4400     2.8650 ha         1 NTX       0.135000
     46 H10         -6.6080     4.0710    -1.4130 hc         1 NTX       0.045700
     47 H11         -7.2000     2.7930    -2.4630 hc         1 NTX       0.045700
     48 H12         -7.0170     3.8570     1.1540 hc         1 NTX       0.045700
     49 H13         -7.8710     2.4460     1.7560 hc         1 NTX       0.045700
     50 H14         -4.7460     2.5850    -2.0830 hc         1 NTX       0.048700
     51 H15         -5.6040     1.1810    -1.4640 hc         1 NTX       0.048700
     52 H16         -7.9870     1.5120    -0.5240 h1         1 NTX       0.059700
     53 H17         -9.7000     3.0070     0.1130 hn         1 NTX       0.334800
     54 H18         -8.8860     4.2810    -0.4470 hn         1 NTX       0.334800
     55 H20         -6.0000     0.9730     1.0860 hc         1 NTX       0.048700
     56 H21         -5.4170     2.2550     2.1400 hc         1 NTX       0.048700
     57 H22          3.4200     0.5500     1.5820 h1         1 NTX       0.041200
     58 H23          3.6960     0.4070    -0.1610 h1         1 NTX       0.041200
     59 H24          7.7630     3.1940    -3.2550 hn         1 NTX       0.371900
     60 H25          5.4030     1.6940    -1.2040 ha         1 NTX       0.158000
     61 H26          1.9250    -0.8120     0.5530 ha         1 NTX       0.137000
     62 H27         -2.3050    -0.5320    -0.0050 ha         1 NTX       0.159000
     63 H28          1.2370    -2.7360     1.4810 h1         1 NTX       0.041200
     64 H29          1.4130    -2.8870    -0.2740 h1         1 NTX       0.041200
     65 H30          0.0510    -4.6390    -1.4920 ha         1 NTX       0.158000
     66 H31         -0.4310    -8.9130    -0.9590 hn         1 NTX       0.406050
     67 H32         -1.0870    -8.9760    -2.5100 hn         1 NTX       0.406050
     68 H33         -1.3730    -6.9990    -3.5910 hn         1 NTX       0.371900
     69 H34         -1.2970    -7.9600     0.8490 ha         1 NTX       0.136000
     70 H35          0.1860    -4.4570     2.7820 ha         1 NTX       0.134500
     71 O2           2.3100     1.8460     0.4060 os         1 NTX      -0.315400
     72 C29         -0.9590    -7.0960    -1.7410 ce         1 NTX       0.659800
@<TRIPOS>BOND
     1     1     6 1   
     2     1     7 1   
     3     1    37 1   
     4     2    17 1   
     5     2    38 1   
     6     2    39 1   
     7     3     4 ar  
     8     3    27 ar  
     9     3    71 1   
    10     4     5 ar  
    11     4    40 1   
    12     5     6 1   
    13     5    29 ar  
    14     6    18 2   
    15     7    19 1   
    16     7    22 1   
    17     7    41 1   
    18     8    14 ar  
    19     8    24 ar  
    20     8    42 1   
    21     9    35 ar  
    22     9    36 ar  
    23     9    43 1   
    24    10    32 ar  
    25    10    35 ar  
    26    10    72 1   
    27    11    31 1   
    28    11    32 ar  
    29    11    36 ar  
    30    12    13 ar  
    31    12    17 1   
    32    12    26 ar  
    33    13    14 ar  
    34    13    44 1   
    35    14    45 1   
    36    15    19 1   
    37    15    20 1   
    38    15    46 1   
    39    15    47 1   
    40    16    20 1   
    41    16    22 1   
    42    16    48 1   
    43    16    49 1   
    44    17    25 2   
    45    19    50 1   
    46    19    51 1   
    47    20    21 1   
    48    20    52 1   
    49    21    53 1   
    50    21    54 1   
    51    22    55 1   
    52    22    56 1   
    53    23    24 1   
    54    23    57 1   
    55    23    58 1   
    56    23    71 1   
    57    24    26 ar  
    58    25    59 1   
    59    26    60 1   
    60    27    28 ar  
    61    27    61 1   
    62    28    29 ar  
    63    28    30 1   
    64    29    62 1   
    65    30    31 1   
    66    31    63 1   
    67    31    64 1   
    68    32    65 1   
    69    33    66 1   
    70    33    67 1   
    71    33    72 1   
    72    34    68 1   
    73    34    72 2   
    74    35    69 1   
    75    36    70 1   
@<TRIPOS>SUBSTRUCTURE
     1 NTX         1 TEMP              0 ****  ****    0 ROOT
