@<TRIPOS>MOLECULE
NTY
   20    20     1     0     0
SMALL
No Charge or Current Charge


@<TRIPOS>ATOM
      1 N            2.9970    -0.1570    -2.2140 n8         1 NTY      -0.994200
      2 CA           1.8850    -1.0360    -1.6980 c3         1 NTY       0.050800
      3 CG           1.8950    -1.0410    -0.1670 ca         1 NTY      -0.078300
      4 CD1          0.8200    -0.4740     0.5490 ca         1 NTY      -0.073000
      5 CD2          2.9700    -1.6120     0.5470 ca         1 NTY      -0.073000
      6 CE1          0.8200    -0.4780     1.9550 ca         1 NTY      -0.180000
      7 CE2          2.9670    -1.6140     1.9530 ca         1 NTY      -0.180000
      8 CZ           1.8940    -1.0480     2.6550 ca         1 NTY       0.095100
      9 OH           1.8970    -1.0540     4.0170 oh         1 NTY      -0.554100
     10 C            1.7990    -2.5160    -2.2670 c          1 NTY       0.728000
     11 O            2.8330    -3.1630    -2.3960 o          1 NTY      -0.721000
     12 OXT          0.6970    -2.9550    -2.5750 o          1 NTY      -0.721000
     13 H            3.8950    -0.5840    -1.9560 hn         1 NTY       0.385000
     14 HN2          2.9890     0.7300    -1.6980 hn         1 NTY       0.385000
     15 HA           0.9500    -0.5540    -2.0170 h1         1 NTY       0.054700
     16 HD1         -0.0180    -0.0300     0.0150 ha         1 NTY       0.115500
     17 HD2          3.8070    -2.0550     0.0130 ha         1 NTY       0.115500
     18 HE1         -0.0170    -0.0360     2.4920 ha         1 NTY       0.099000
     19 HE2          3.7990    -2.0570     2.4950 ha         1 NTY       0.099000
     20 HOH          1.0740    -0.6200     4.3300 ho         1 NTY       0.447000
@<TRIPOS>BOND
     1     1     2 1   
     2     1    13 1   
     3     1    14 1   
     4     2     3 1   
     5     2    10 1   
     6     2    15 1   
     7     3     4 ar  
     8     3     5 ar  
     9     4     6 ar  
    10     4    16 1   
    11     5     7 ar  
    12     5    17 1   
    13     6     8 ar  
    14     6    18 1   
    15     7     8 ar  
    16     7    19 1   
    17     8     9 1   
    18     9    20 1   
    19    10    11 1   
    20    10    12 1   
@<TRIPOS>SUBSTRUCTURE
     1 NTY         1 TEMP              0 ****  ****    0 ROOT
