@<TRIPOS>MOLECULE
NTY
   20    20     1     0     0
SMALL
bcc


@<TRIPOS>ATOM
      1 N            3.1320    -0.3580    -2.2700 n8         1 NTY      -0.883800
      2 CA           1.9260    -0.9120    -1.6840 c3         1 NTY       0.050800
      3 CG           1.9020    -0.9420    -0.1690 ca         1 NTY      -0.078300
      4 CD1          0.7610    -0.5840     0.5390 ca         1 NTY      -0.091000
      5 CD2          3.0100    -1.3640     0.5630 ca         1 NTY      -0.091000
      6 CE1          0.7180    -0.6340     1.9260 ca         1 NTY      -0.198000
      7 CE2          2.9860    -1.4220     1.9470 ca         1 NTY      -0.198000
      8 CZ           1.8350    -1.0550     2.6410 ca         1 NTY       0.095100
      9 OH           1.8590    -1.1200     3.9910 oh         1 NTY      -0.515100
     10 C            1.6990    -2.3700    -2.1670 c          1 NTY       0.938600
     11 O            2.7160    -3.0230    -2.4690 o          1 NTY      -0.826300
     12 OXT          0.5210    -2.7710    -2.1610 o          1 NTY      -0.826300
     13 H            3.8460    -1.0750    -2.2790 hn         1 NTY       0.329800
     14 HN2          3.4810     0.4090    -1.7100 hn         1 NTY       0.329800
     15 HA           1.0660    -0.3180    -2.0130 h1         1 NTY       0.054700
     16 HD1         -0.1170    -0.2450     0.0020 ha         1 NTY       0.133500
     17 HD2          3.9180    -1.6550     0.0490 ha         1 NTY       0.133500
     18 HE1         -0.1840    -0.3360     2.4490 ha         1 NTY       0.117000
     19 HE2          3.8610    -1.7520     2.4950 ha         1 NTY       0.117000
     20 HOH          1.0160    -0.8250     4.3520 ho         1 NTY       0.408000
@<TRIPOS>BOND
     1     1     2 1   
     2     1    13 1   
     3     1    14 1   
     4     2     3 1   
     5     2    10 1   
     6     2    15 1   
     7     3     4 ar  
     8     3     5 ar  
     9     4     6 ar  
    10     4    16 1   
    11     5     7 ar  
    12     5    17 1   
    13     6     8 ar  
    14     6    18 1   
    15     7     8 ar  
    16     7    19 1   
    17     8     9 1   
    18     9    20 1   
    19    10    11 1   
    20    10    12 1   
@<TRIPOS>SUBSTRUCTURE
     1 NTY         1 TEMP              0 ****  ****    0 ROOT
