@<TRIPOS>MOLECULE
NTZ
   24    25     1     0     0
SMALL
No Charge or Current Charge


@<TRIPOS>ATOM
      1 C1          -1.3540     0.1170    -0.1500 cc         1 NTZ       0.337800
      2 C2          -0.8980     0.3570    -1.5830 c6         1 NTZ       0.126000
      3 C3           0.5240    -0.2510    -1.7560 c6         1 NTZ       0.133300
      4 C4           1.4670     0.2390    -0.6150 c6         1 NTZ       0.162300
      5 C5           0.9810    -0.2660     0.7870 c6         1 NTZ       0.096300
      6 C6           1.7780     0.4340     1.9350 c3         1 NTZ       0.162600
      7 N1          -0.5020    -0.1280     0.8990 na         1 NTZ      -0.077700
      8 N17         -1.2220    -0.2970     2.0370 nc         1 NTZ      -0.166800
      9 N18         -2.4660    -0.1290     1.6790 nd         1 NTZ      -0.051000
     10 N21         -2.5800     0.1300     0.3360 nd         1 NTZ      -0.377000
     11 O2          -1.7960    -0.2010    -2.5750 oh         1 NTZ      -0.699000
     12 O3           1.0640     0.1040    -3.0430 oh         1 NTZ      -0.663000
     13 O4           2.8000    -0.2140    -0.9010 oh         1 NTZ      -0.710000
     14 O6           1.6350    -0.2270     3.2050 oh         1 NTZ      -0.639000
     15 H2          -0.8200     1.4460    -1.7290 h1         1 NTZ       0.066700
     16 H3           0.4350    -1.3460    -1.6790 h1         1 NTZ       0.070700
     17 H4           1.4440     1.3400    -0.6110 h1         1 NTZ       0.050700
     18 H5           1.2090    -1.3390     0.8470 h1         1 NTZ       0.108700
     19 H61          1.4420     1.4780     2.0060 h1         1 NTZ       0.038700
     20 H62          2.8410     0.4540     1.6590 h1         1 NTZ       0.038700
     21 HO2         -2.7120     0.0770    -2.3260 ho         1 NTZ       0.532000
     22 HO3          0.3180    -0.0110    -3.6790 ho         1 NTZ       0.473000
     23 HO4          2.8580    -0.1760    -1.8890 ho         1 NTZ       0.534000
     24 HO6          2.1500     0.2940     3.8620 ho         1 NTZ       0.453000
@<TRIPOS>BOND
     1     1     2 1   
     2     1     7 1   
     3     1    10 2   
     4     2     3 1   
     5     2    11 1   
     6     2    15 1   
     7     3     4 1   
     8     3    12 1   
     9     3    16 1   
    10     4     5 1   
    11     4    13 1   
    12     4    17 1   
    13     5     6 1   
    14     5     7 1   
    15     5    18 1   
    16     6    14 1   
    17     6    19 1   
    18     6    20 1   
    19     7     8 1   
    20     8     9 2   
    21     9    10 1   
    22    11    21 1   
    23    12    22 1   
    24    13    23 1   
    25    14    24 1   
@<TRIPOS>SUBSTRUCTURE
     1 NTZ         1 TEMP              0 ****  ****    0 ROOT
