@<TRIPOS>MOLECULE
NTZ
   24    25     1     0     0
SMALL
bcc


@<TRIPOS>ATOM
      1 C1          -1.3350     0.1160    -0.0910 cc         1 NTZ       0.337800
      2 C2          -0.9320     0.3790    -1.5060 c6         1 NTZ       0.102800
      3 C3           0.4370    -0.2580    -1.7290 c6         1 NTZ       0.110100
      4 C4           1.4040     0.2030    -0.6340 c6         1 NTZ       0.139100
      5 C5           0.9890    -0.2950     0.7550 c6         1 NTZ       0.067000
      6 C6           1.7280     0.4690     1.8430 c3         1 NTZ       0.139400
      7 N1          -0.4580    -0.1550     0.8780 na         1 NTZ      -0.048400
      8 N17         -1.1320    -0.3560     2.0020 nc         1 NTZ      -0.166800
      9 N18         -2.3650    -0.2010     1.7190 nd         1 NTZ      -0.051000
     10 N21         -2.5340     0.0930     0.4300 nd         1 NTZ      -0.377000
     11 O2          -1.8450    -0.1650    -2.4130 oh         1 NTZ      -0.576800
     12 O3           0.9870     0.1390    -2.9540 oh         1 NTZ      -0.600800
     13 O4           2.6920    -0.3010    -0.8510 oh         1 NTZ      -0.587800
     14 O6           1.5900    -0.2050     3.0670 oh         1 NTZ      -0.576800
     15 H2          -0.8290     1.4650    -1.6370 h1         1 NTZ       0.066700
     16 H3           0.3330    -1.3520    -1.6700 h1         1 NTZ       0.070700
     17 H4           1.4070     1.3050    -0.6260 h1         1 NTZ       0.050700
     18 H5           1.2240    -1.3610     0.8260 h1         1 NTZ       0.108700
     19 H61          1.3360     1.4940     1.8830 h1         1 NTZ       0.038700
     20 H62          2.7770     0.5340     1.5370 h1         1 NTZ       0.038700
     21 HO2         -2.6050     0.4210    -2.4810 ho         1 NTZ       0.433000
     22 HO3          0.5890    -0.3800    -3.6590 ho         1 NTZ       0.434000
     23 HO4          3.0100     0.0430    -1.6930 ho         1 NTZ       0.435000
     24 HO6          2.1270     0.2520     3.7200 ho         1 NTZ       0.414000
@<TRIPOS>BOND
     1     1     2 1   
     2     1     7 1   
     3     1    10 2   
     4     2     3 1   
     5     2    11 1   
     6     2    15 1   
     7     3     4 1   
     8     3    12 1   
     9     3    16 1   
    10     4     5 1   
    11     4    13 1   
    12     4    17 1   
    13     5     6 1   
    14     5     7 1   
    15     5    18 1   
    16     6    14 1   
    17     6    19 1   
    18     6    20 1   
    19     7     8 1   
    20     8     9 2   
    21     9    10 1   
    22    11    21 1   
    23    12    22 1   
    24    13    23 1   
    25    14    24 1   
@<TRIPOS>SUBSTRUCTURE
     1 NTZ         1 TEMP              0 ****  ****    0 ROOT
