@<TRIPOS>MOLECULE
NU0
   33    35     1     0     0
SMALL
No Charge or Current Charge


@<TRIPOS>ATOM
      1 N1           7.2890     0.6950    17.3730 nb         1 NU0      -0.638000
      2 C4          11.0450    -0.9090    22.5530 ca         1 NU0      -0.069300
      3 C5           9.5640    -1.2480    22.6840 c3         1 NU0      -0.106100
      4 C6           8.7070    -0.2380    21.9120 c          1 NU0       0.595100
      5 C7           7.4680    -0.0060    19.7030 ca         1 NU0      -0.052000
      6 C8           7.9440     0.0650    18.3750 ca         1 NU0       0.293900
      7 C10          5.5310     1.2410    18.9520 ca         1 NU0      -0.061000
      8 C13          5.5830     0.5220    21.2650 ca         1 NU0       0.382900
      9 C15         11.8160    -1.4750    21.5180 ca         1 NU0      -0.094000
     10 O            8.4570     0.8780    22.3530 o          1 NU0      -0.557100
     11 C3          11.6540    -0.0200    23.4610 ca         1 NU0      -0.083000
     12 C2          13.0180     0.2980    23.3370 ca         1 NU0      -0.099000
     13 C1          13.7820    -0.2710    22.3030 ca         1 NU0      -0.094000
     14 C           13.1790    -1.1560    21.3950 ca         1 NU0       0.126000
     15 Cl          14.1320    -1.8670    20.0990 cl         1 NU0      -0.213000
     16 N            8.2700    -0.6710    20.6700 ns         1 NU0      -0.171000
     17 C14          6.2110     0.5830    19.9970 ca         1 NU0      -0.067000
     18 N2           4.3780     1.0870    21.5260 nb         1 NU0      -0.657000
     19 C12          3.7510     1.7360    20.5190 ca         1 NU0       0.329900
     20 C11          4.2840     1.8330    19.2230 ca         1 NU0      -0.137000
     21 C9           6.1040     1.2790    17.6650 ca         1 NU0       0.349900
     22 H1           9.2730    -1.2180    23.7410 hc         1 NU0       0.067700
     23 H2           9.3900    -2.2570    22.2910 hc         1 NU0       0.067700
     24 H3           8.8990    -0.3860    18.1090 h4         1 NU0       0.022100
     25 H4           6.0350    -0.0120    22.0980 h4         1 NU0       0.028100
     26 H5          11.3630    -2.1620    20.8070 ha         1 NU0       0.125000
     27 H6          11.0700     0.4280    24.2620 ha         1 NU0       0.121000
     28 H7          13.4830     0.9860    24.0410 ha         1 NU0       0.122000
     29 H8          14.8370    -0.0260    22.2040 ha         1 NU0       0.132000
     30 H9           8.6030    -1.5870    20.3920 hn         1 NU0       0.156000
     31 H10          2.7850     2.1820    20.7550 h4         1 NU0       0.024100
     32 H11          3.7290     2.3550    18.4480 ha         1 NU0       0.128000
     33 H12          5.5950     1.7800    16.8420 h4         1 NU0       0.027100
@<TRIPOS>BOND
     1     1     6 ar  
     2     1    21 ar  
     3     2     3 1   
     4     2     9 ar  
     5     2    11 ar  
     6     3     4 1   
     7     3    22 1   
     8     3    23 1   
     9     4    10 2   
    10     4    16 1   
    11     5     6 ar  
    12     5    16 1   
    13     5    17 ar  
    14     6    24 1   
    15     7    17 ar  
    16     7    20 ar  
    17     7    21 ar  
    18     8    17 ar  
    19     8    18 ar  
    20     8    25 1   
    21     9    14 ar  
    22     9    26 1   
    23    11    12 ar  
    24    11    27 1   
    25    12    13 ar  
    26    12    28 1   
    27    13    14 ar  
    28    13    29 1   
    29    14    15 1   
    30    16    30 1   
    31    18    19 ar  
    32    19    20 ar  
    33    19    31 1   
    34    20    32 1   
    35    21    33 1   
@<TRIPOS>SUBSTRUCTURE
     1 NU0         1 TEMP              0 ****  ****    0 ROOT
