@<TRIPOS>MOLECULE
NU0
   33    35     1     0     0
SMALL
abcg2


@<TRIPOS>ATOM
      1 N1           6.5180     0.0440    17.2530 nb         1 NU0      -0.638000
      2 C4          11.1340    -0.9430    22.3840 ca         1 NU0      -0.069300
      3 C5           9.7490    -1.4490    22.0920 c3         1 NU0      -0.106100
      4 C6           8.9340    -0.4690    21.2550 c          1 NU0       0.595100
      5 C7           7.1920    -0.3550    19.5300 ca         1 NU0      -0.052000
      6 C8           7.2920    -0.5750    18.1770 ca         1 NU0       0.293900
      7 C10          5.4220     1.2230    19.0340 ca         1 NU0      -0.061000
      8 C13          5.9420     0.8220    21.3670 ca         1 NU0       0.382900
      9 C15         12.1620    -1.1750    21.4700 ca         1 NU0      -0.094000
     10 O            9.0420     0.7430    21.3600 o          1 NU0      -0.557100
     11 C3          11.4070    -0.2160    23.5420 ca         1 NU0      -0.083000
     12 C2          12.6850     0.2730    23.7850 ca         1 NU0      -0.099000
     13 C1          13.7130     0.0470    22.8760 ca         1 NU0      -0.094000
     14 C           13.4310    -0.6780    21.7270 ca         1 NU0       0.126000
     15 CL          14.7120    -0.9760    20.5660 cl         1 NU0      -0.213000
     16 N            8.0370    -1.0630    20.4160 ns         1 NU0      -0.171000
     17 C14          6.2140     0.5560    20.0010 ca         1 NU0      -0.067000
     18 N2           5.0240     1.6690    21.7690 nb         1 NU0      -0.657000
     19 C12          4.2950     2.3330    20.8310 ca         1 NU0       0.329900
     20 C11          4.4500     2.1410    19.4850 ca         1 NU0      -0.137000
     21 C9           5.6300     0.9180    17.6670 ca         1 NU0       0.349900
     22 H1           9.1930    -1.5860    23.0230 hc         1 NU0       0.067700
     23 H2           9.7890    -2.4190    21.5960 hc         1 NU0       0.067700
     24 H3           8.0260    -1.2790    17.8010 h4         1 NU0       0.022100
     25 H4           6.5010     0.3020    22.1360 h4         1 NU0       0.028100
     26 H5          11.9720    -1.7390    20.5660 ha         1 NU0       0.125000
     27 H6          10.6140    -0.0350    24.2570 ha         1 NU0       0.121000
     28 H7          12.8880     0.8340    24.6880 ha         1 NU0       0.122000
     29 H8          14.7110     0.4220    23.0570 ha         1 NU0       0.132000
     30 H9           8.1310    -2.0560    20.2610 hn         1 NU0       0.156000
     31 H10          3.5580     3.0300    21.2120 h4         1 NU0       0.024100
     32 H11          3.8340     2.6760    18.7730 ha         1 NU0       0.128000
     33 H12          5.0290     1.4200    16.9150 h4         1 NU0       0.027100
@<TRIPOS>BOND
     1     1     6 ar  
     2     1    21 ar  
     3     2     3 1   
     4     2     9 ar  
     5     2    11 ar  
     6     3     4 1   
     7     3    22 1   
     8     3    23 1   
     9     4    10 2   
    10     4    16 1   
    11     5     6 ar  
    12     5    16 1   
    13     5    17 ar  
    14     6    24 1   
    15     7    17 ar  
    16     7    20 ar  
    17     7    21 ar  
    18     8    17 ar  
    19     8    18 ar  
    20     8    25 1   
    21     9    14 ar  
    22     9    26 1   
    23    11    12 ar  
    24    11    27 1   
    25    12    13 ar  
    26    12    28 1   
    27    13    14 ar  
    28    13    29 1   
    29    14    15 1   
    30    16    30 1   
    31    18    19 ar  
    32    19    20 ar  
    33    19    31 1   
    34    20    32 1   
    35    21    33 1   
@<TRIPOS>SUBSTRUCTURE
     1 NU0         1 TEMP              0 ****  ****    0 ROOT
