@<TRIPOS>MOLECULE
NU1
   21    22     1     0     0
SMALL
abcg2


@<TRIPOS>ATOM
      1 C5           0.9200    -0.0930    -1.7900 ca         1 NU1       0.157100
      2 O5           2.2390    -0.1470    -2.0230 oh         1 NU1      -0.528100
      3 C4A          0.4460    -0.0630    -0.4630 ca         1 NU1       0.088400
      4 N4           1.3920    -0.0900     0.5310 nc         1 NU1      -0.656100
      5 C3           0.9840    -0.0640     1.7500 cd         1 NU1       0.509900
      6 C9           1.9400    -0.0890     2.8910 c3         1 NU1      -0.142400
      7 N2          -0.3420    -0.0110     2.0710 ns         1 NU1      -0.432400
      8 C1          -1.3790     0.0220     1.1620 c          1 NU1       0.577600
      9 O1          -2.5390     0.0700     1.5280 o          1 NU1      -0.531000
     10 C8A         -0.9300    -0.0070    -0.2250 ca         1 NU1      -0.156600
     11 C8          -1.8370     0.0190    -1.2870 ca         1 NU1      -0.083000
     12 C7          -1.3540    -0.0100    -2.5780 ca         1 NU1      -0.090000
     13 C6           0.0180    -0.0670    -2.8360 ca         1 NU1      -0.128000
     14 HO5          2.6920    -0.1610    -1.1650 ho         1 NU1       0.495000
     15 H91          2.9590    -0.1280     2.5200 hc         1 NU1       0.066700
     16 H92          1.8220     0.8000     3.5120 hc         1 NU1       0.066700
     17 H93          1.7610    -0.9580     3.5250 hc         1 NU1       0.066700
     18 HN2         -0.5980     0.0090     3.0500 hn         1 NU1       0.329500
     19 H8          -2.9000     0.0620    -1.0940 ha         1 NU1       0.138000
     20 H7          -2.0430     0.0100    -3.4120 ha         1 NU1       0.121000
     21 H6           0.3810    -0.0900    -3.8560 ha         1 NU1       0.133000
@<TRIPOS>BOND
     1     1     2 1   
     2     1     3 ar  
     3     1    13 ar  
     4     2    14 1   
     5     3     4 1   
     6     3    10 ar  
     7     4     5 2   
     8     5     6 1   
     9     5     7 1   
    10     6    15 1   
    11     6    16 1   
    12     6    17 1   
    13     7     8 1   
    14     7    18 1   
    15     8     9 2   
    16     8    10 1   
    17    10    11 ar  
    18    11    12 ar  
    19    11    19 1   
    20    12    13 ar  
    21    12    20 1   
    22    13    21 1   
@<TRIPOS>SUBSTRUCTURE
     1 NU1         1 TEMP              0 ****  ****    0 ROOT
