@<TRIPOS>MOLECULE
NU1
   21    22     1     0     0
SMALL
No Charge or Current Charge


@<TRIPOS>ATOM
      1 C5           0.9180    -0.0930    -1.8270 ca         1 NU1       0.157100
      2 O5           2.2560    -0.1480    -2.0860 oh         1 NU1      -0.528100
      3 C4A          0.4900    -0.0640    -0.4790 ca         1 NU1       0.088400
      4 N4           1.4820    -0.0940     0.5300 nc         1 NU1      -0.656100
      5 C3           0.9760    -0.0630     1.7640 cd         1 NU1       0.509900
      6 C9           1.9190    -0.0890     2.9310 c3         1 NU1      -0.142400
      7 N2          -0.3460    -0.0090     2.0950 ns         1 NU1      -0.432400
      8 C1          -1.3550     0.0230     1.1960 c          1 NU1       0.577600
      9 O1          -2.5260     0.0710     1.5400 o          1 NU1      -0.531000
     10 C8A         -0.8980    -0.0080    -0.2200 ca         1 NU1      -0.156600
     11 C8          -1.8250     0.0180    -1.2850 ca         1 NU1      -0.083000
     12 C7          -1.3770    -0.0110    -2.6160 ca         1 NU1      -0.090000
     13 C6          -0.0010    -0.0670    -2.8870 ca         1 NU1      -0.128000
     14 HO5          2.6760    -0.1560    -1.1940 ho         1 NU1       0.495000
     15 H91          2.9650    -0.1290     2.6040 hc         1 NU1       0.066700
     16 H92          1.7990     0.8070     3.5500 hc         1 NU1       0.066700
     17 H93          1.7350    -0.9660     3.5620 hc         1 NU1       0.066700
     18 HN2         -0.6190     0.0110     3.0660 hn         1 NU1       0.329500
     19 H8          -2.8940     0.0620    -1.0830 ha         1 NU1       0.138000
     20 H7          -2.0940     0.0090    -3.4340 ha         1 NU1       0.121000
     21 H6           0.3530    -0.0900    -3.9150 ha         1 NU1       0.133000
@<TRIPOS>BOND
     1     1     2 1   
     2     1     3 ar  
     3     1    13 ar  
     4     2    14 1   
     5     3     4 1   
     6     3    10 ar  
     7     4     5 2   
     8     5     6 1   
     9     5     7 1   
    10     6    15 1   
    11     6    16 1   
    12     6    17 1   
    13     7     8 1   
    14     7    18 1   
    15     8     9 2   
    16     8    10 1   
    17    10    11 ar  
    18    11    12 ar  
    19    11    19 1   
    20    12    13 ar  
    21    12    20 1   
    22    13    21 1   
@<TRIPOS>SUBSTRUCTURE
     1 NU1         1 TEMP              0 ****  ****    0 ROOT
