@<TRIPOS>MOLECULE
NU2
   70    74     1     0     0
SMALL
bcc


@<TRIPOS>ATOM
      1 C10         -7.6530     3.6350   123.9740 c5         1 NU2      -0.068700
      2 C13         -6.1740     3.2700   123.7250 c5         1 NU2      -0.031600
      3 C15         -7.2950     2.5890   126.2800 c          1 NU2       0.705500
      4 C17         -6.0490     3.3900   122.2330 ca         1 NU2      -0.089300
      5 C20         -6.5350     0.8630   127.7040 c3         1 NU2       0.015400
      6 C21         -8.2530    -1.2090   123.6630 c3         1 NU2      -0.072400
      7 C22         -5.9560    -0.5850   124.4910 c3         1 NU2      -0.084100
      8 C24         -4.9000     3.4670   121.4610 ca         1 NU2      -0.113500
      9 C26         -6.1000    -0.5610   127.8040 cc         1 NU2       0.208300
     10 C28         -5.0210     3.5690   120.0790 ca         1 NU2      -0.129500
     11 C11         -8.3140     3.1040   125.2820 c6         1 NU2       0.051700
     12 C12         -8.0180     0.3120   125.7090 c6         1 NU2       0.040700
     13 C14         -8.3870     3.2770   122.6690 c5         1 NU2      -0.031600
     14 C16         -7.4040    -0.1330   124.3560 c3         1 NU2      -0.066700
     15 C18         -7.3060     3.4060   121.6350 ca         1 NU2      -0.089300
     16 C19         -9.4020     0.8840   125.4740 c          1 NU2       0.712500
     17 C23         -7.5060     1.1880   128.8570 c          1 NU2       0.652100
     18 C25         -7.4280     3.5060   120.2570 ca         1 NU2      -0.113500
     19 C29         -6.2770     3.5900   119.4810 ca         1 NU2      -0.129500
     20 C30         -7.9010     1.6490   131.1900 c6         1 NU2       0.064500
     21 C31         -5.6010     1.2320   130.4630 c6         1 NU2       0.064500
     22 C32         -6.7980    -1.6570   128.1710 cd         1 NU2       0.175300
     23 C33         -7.0930     2.1760   132.3690 c6         1 NU2       0.116900
     24 C34         -5.1420     2.5410   131.1010 c6         1 NU2       0.116900
     25 C35         -4.7500    -2.2000   127.8070 cd         1 NU2       0.490700
     26 C36         -3.5990    -3.1230   127.7120 c3         1 NU2      -0.120400
     27 N06         -7.1850     1.2510   126.4540 n          1 NU2      -0.440800
     28 N07         -9.4160     2.1790   125.1230 ns         1 NU2      -0.566900
     29 N08         -6.9960     1.3420   130.0860 n          1 NU2      -0.460800
     30 N09         -4.7880    -0.9320   127.5860 nc         1 NU2      -0.675000
     31 O01         -6.6340     3.3900   126.9210 o          1 NU2      -0.628500
     32 O02        -10.4090     0.1980   125.5300 o          1 NU2      -0.622500
     33 O03         -8.7030     1.2720   128.6260 o          1 NU2      -0.602100
     34 O04         -6.1390     3.1130   131.9270 os         1 NU2      -0.394600
     35 O05         -5.9440    -2.7040   128.1660 os         1 NU2      -0.343800
     36 H1          -7.6790     4.7240   124.0520 hc         1 NU2       0.062700
     37 H2          -5.9290     2.2530   124.0440 hc         1 NU2       0.061950
     38 H3          -5.4940     3.9300   124.2640 hc         1 NU2       0.061950
     39 H4          -5.6330     1.4690   127.7830 h1         1 NU2       0.115700
     40 H5          -7.7480    -1.4550   122.7260 hc         1 NU2       0.045700
     41 H6          -9.2210    -0.7950   123.3760 hc         1 NU2       0.045700
     42 H7          -5.3140     0.1930   124.9030 hc         1 NU2       0.038367
     43 H8          -5.8560    -1.4620   125.1280 hc         1 NU2       0.038367
     44 H9          -5.5640    -0.8450   123.5060 hc         1 NU2       0.038367
     45 H10         -3.9200     3.4550   121.9230 ha         1 NU2       0.132500
     46 H11         -4.1330     3.6400   119.4640 ha         1 NU2       0.130000
     47 H12         -8.7410     3.9750   125.7820 h1         1 NU2       0.078700
     48 H13         -8.1460    -0.5720   126.3300 h1         1 NU2       0.088700
     49 H14         -9.2430     3.9280   122.4850 hc         1 NU2       0.061950
     50 H15         -8.7730     2.2530   122.6810 hc         1 NU2       0.061950
     51 H16         -7.4080     0.7320   123.6870 hc         1 NU2       0.056700
     52 H17         -8.4050     3.5230   119.7880 ha         1 NU2       0.132500
     53 H18         -8.9890    -3.2300   123.8510 hc         1 NU2       0.034367
     54 H19         -7.5370    -2.9390   124.7940 hc         1 NU2       0.034367
     55 H20         -9.0950    -2.3170   125.3430 hc         1 NU2       0.034367
     56 H21         -6.3590     3.6760   118.4050 ha         1 NU2       0.130000
     57 H23         -8.4670     0.7630   131.4930 h1         1 NU2       0.061700
     58 H24         -5.4820     0.3930   131.1530 h1         1 NU2       0.061700
     59 H25         -4.9640     1.0140   129.6120 h1         1 NU2       0.061700
     60 H26         -7.8210    -1.8430   128.4530 h4         1 NU2       0.081100
     61 H27         -7.7640     2.6890   133.0580 h1         1 NU2       0.053200
     62 H28         -6.6270     1.3570   132.9290 h1         1 NU2       0.053200
     63 H29         -4.2220     2.3540   131.6660 h1         1 NU2       0.053200
     64 H30         -4.9130     3.2700   130.3200 h1         1 NU2       0.053200
     65 H31         -2.7030    -2.5600   127.4660 hc         1 NU2       0.068033
     66 H32         -3.4360    -3.6480   128.6540 hc         1 NU2       0.068033
     67 H33         -3.7620    -3.8720   126.9370 hc         1 NU2       0.068033
     68 H34        -10.3230     2.5910   124.9540 hn         1 NU2       0.320500
     69 C27         -8.4740    -2.4880   124.4630 c3         1 NU2      -0.091100
     70 H22         -8.6170     2.4050   130.8660 h1         1 NU2       0.061700
@<TRIPOS>BOND
     1     1     2 1   
     2     1    11 1   
     3     1    13 1   
     4     1    36 1   
     5     2     4 1   
     6     2    37 1   
     7     2    38 1   
     8     3    11 1   
     9     3    27 1   
    10     3    31 2   
    11     4     8 ar  
    12     4    15 ar  
    13     5     9 1   
    14     5    17 1   
    15     5    27 1   
    16     5    39 1   
    17     6    14 1   
    18     6    40 1   
    19     6    41 1   
    20     6    69 1   
    21     7    14 1   
    22     7    42 1   
    23     7    43 1   
    24     7    44 1   
    25     8    10 ar  
    26     8    45 1   
    27     9    22 2   
    28     9    30 1   
    29    10    19 ar  
    30    10    46 1   
    31    11    28 1   
    32    11    47 1   
    33    12    14 1   
    34    12    16 1   
    35    12    27 1   
    36    12    48 1   
    37    13    15 1   
    38    13    49 1   
    39    13    50 1   
    40    14    51 1   
    41    15    18 ar  
    42    16    28 1   
    43    16    32 2   
    44    17    29 1   
    45    17    33 2   
    46    18    19 ar  
    47    18    52 1   
    48    19    56 1   
    49    20    23 1   
    50    20    29 1   
    51    20    57 1   
    52    20    70 1   
    53    21    24 1   
    54    21    29 1   
    55    21    58 1   
    56    21    59 1   
    57    22    35 1   
    58    22    60 1   
    59    23    34 1   
    60    23    61 1   
    61    23    62 1   
    62    24    34 1   
    63    24    63 1   
    64    24    64 1   
    65    25    26 1   
    66    25    30 2   
    67    25    35 1   
    68    26    65 1   
    69    26    66 1   
    70    26    67 1   
    71    28    68 1   
    72    53    69 1   
    73    54    69 1   
    74    55    69 1   
@<TRIPOS>SUBSTRUCTURE
     1 NU2         1 TEMP              0 ****  ****    0 ROOT
