@<TRIPOS>MOLECULE
NU2
   70    74     1     0     0
SMALL
No Charge or Current Charge


@<TRIPOS>ATOM
      1 C10         -7.7080     3.6930   123.6270 c5         1 NU2      -0.068700
      2 C13         -6.1760     3.3750   123.3710 c5         1 NU2      -0.031600
      3 C15         -7.2080     2.8990   126.0880 c          1 NU2       0.563000
      4 C17         -6.1500     3.3170   121.8680 ca         1 NU2      -0.089300
      5 C20         -6.5520     1.1360   127.7430 c3         1 NU2       0.015400
      6 C21         -8.2280    -1.2830   123.7860 c3         1 NU2      -0.072400
      7 C22         -5.9230    -0.5610   124.6020 c3         1 NU2      -0.084100
      8 C24         -5.0140     3.3930   121.0450 ca         1 NU2      -0.095500
      9 C26         -6.0410    -0.2840   127.8330 cc         1 NU2       0.208300
     10 C28         -5.1780     3.3080   119.6490 ca         1 NU2      -0.111500
     11 C11         -8.2730     3.3880   125.0610 c6         1 NU2       0.051700
     12 C12         -8.0700     0.5390   125.6980 c6         1 NU2       0.040700
     13 C14         -8.4790     3.0800   122.3820 c5         1 NU2      -0.031600
     14 C16         -7.4000    -0.1280   124.4290 c3         1 NU2      -0.066700
     15 C18         -7.4090     3.1570   121.3260 ca         1 NU2      -0.089300
     16 C19         -9.4390     1.1510   125.2740 c          1 NU2       0.570000
     17 C23         -7.4750     1.4600   128.9490 c          1 NU2       0.585100
     18 C25         -7.5920     3.0660   119.9380 ca         1 NU2      -0.095500
     19 C29         -6.4660     3.1450   119.0950 ca         1 NU2      -0.111500
     20 C30         -7.8410     1.6880   131.4250 c6         1 NU2       0.064500
     21 C31         -5.4810     1.7310   130.5070 c6         1 NU2       0.064500
     22 C32         -6.7280    -1.4370   128.1020 cd         1 NU2       0.130900
     23 C33         -7.2190     1.3920   132.8130 c6         1 NU2       0.140100
     24 C34         -4.9950     1.4400   131.9510 c6         1 NU2       0.140100
     25 C35         -4.6740    -1.8920   127.9050 cd         1 NU2       0.446300
     26 C36         -3.4210    -2.7120   127.8670 c3         1 NU2      -0.120400
     27 N06         -7.1750     1.5180   126.4170 n          1 NU2      -0.373800
     28 N07         -9.4610     2.5050   125.0390 ns         1 NU2      -0.499900
     29 N08         -6.9320     1.4350   130.2590 n          1 NU2      -0.393800
     30 N09         -4.7110    -0.5800   127.7250 nc         1 NU2      -0.675000
     31 O01         -6.4890     3.7060   126.6640 o          1 NU2      -0.553000
     32 O02        -10.4760     0.5070   125.2380 o          1 NU2      -0.547000
     33 O03         -8.6770     1.6380   128.7870 o          1 NU2      -0.602100
     34 O04         -5.9130     1.9840   132.9150 os         1 NU2      -0.441000
     35 O05         -5.8770    -2.4970   128.1410 os         1 NU2      -0.255000
     36 H1          -7.8130     4.7820   123.5530 hc         1 NU2       0.062700
     37 H2          -5.8570     2.4200   123.8000 hc         1 NU2       0.061950
     38 H3          -5.5200     4.1530   123.7780 hc         1 NU2       0.061950
     39 H4          -5.6690     1.7710   127.8720 h1         1 NU2       0.115700
     40 H5          -7.7030    -1.6360   122.8890 hc         1 NU2       0.045700
     41 H6          -9.1870    -0.8960   123.4230 hc         1 NU2       0.045700
     42 H7          -5.3050     0.2640   124.9760 hc         1 NU2       0.038367
     43 H8          -5.8330    -1.4080   125.2880 hc         1 NU2       0.038367
     44 H9          -5.5010    -0.8700   123.6380 hc         1 NU2       0.038367
     45 H10         -4.0240     3.5150   121.4790 ha         1 NU2       0.114500
     46 H11         -4.3100     3.3660   118.9960 ha         1 NU2       0.112000
     47 H12         -8.6220     4.3410   125.4830 h1         1 NU2       0.078700
     48 H13         -8.3410    -0.2570   126.4010 h1         1 NU2       0.088700
     49 H14         -9.3730     3.6610   122.1260 hc         1 NU2       0.061950
     50 H15         -8.7940     2.0430   122.5320 hc         1 NU2       0.061950
     51 H16         -7.3590     0.6490   123.6600 hc         1 NU2       0.056700
     52 H17         -8.5870     2.9360   119.5180 ha         1 NU2       0.114500
     53 H18         -9.0480    -3.2690   124.1480 hc         1 NU2       0.034367
     54 H19         -7.5600    -2.9500   125.0530 hc         1 NU2       0.034367
     55 H20         -9.0980    -2.2190   125.5720 hc         1 NU2       0.034367
     56 H21         -6.5890     3.0770   118.0170 ha         1 NU2       0.112000
     57 H23         -8.7510     1.0810   131.3190 h1         1 NU2       0.061700
     58 H24         -4.8490     1.1460   129.8280 h1         1 NU2       0.061700
     59 H25         -5.2990     2.7920   130.2840 h1         1 NU2       0.061700
     60 H26         -7.7780    -1.6200   128.2870 h4         1 NU2       0.081100
     61 H27         -7.8640     1.7970   133.6060 h1         1 NU2       0.053200
     62 H28         -7.1370     0.3050   132.9630 h1         1 NU2       0.053200
     63 H29         -4.9100     0.3540   132.1050 h1         1 NU2       0.053200
     64 H30         -4.0010     1.8830   132.1070 h1         1 NU2       0.053200
     65 H31         -2.5450    -2.0890   127.6540 hc         1 NU2       0.068033
     66 H32         -3.2570    -3.2120   128.8280 hc         1 NU2       0.068033
     67 H33         -3.4870    -3.4810   127.0900 hc         1 NU2       0.068033
     68 H34        -10.3660     2.9030   124.8140 hn         1 NU2       0.320500
     69 C27         -8.4950    -2.5000   124.7010 c3         1 NU2      -0.091100
     70 H22         -8.1530     2.7420   131.4000 h1         1 NU2       0.061700
@<TRIPOS>BOND
     1     1     2 1   
     2     1    11 1   
     3     1    13 1   
     4     1    36 1   
     5     2     4 1   
     6     2    37 1   
     7     2    38 1   
     8     3    11 1   
     9     3    27 1   
    10     3    31 2   
    11     4     8 ar  
    12     4    15 ar  
    13     5     9 1   
    14     5    17 1   
    15     5    27 1   
    16     5    39 1   
    17     6    14 1   
    18     6    40 1   
    19     6    41 1   
    20     6    69 1   
    21     7    14 1   
    22     7    42 1   
    23     7    43 1   
    24     7    44 1   
    25     8    10 ar  
    26     8    45 1   
    27     9    22 2   
    28     9    30 1   
    29    10    19 ar  
    30    10    46 1   
    31    11    28 1   
    32    11    47 1   
    33    12    14 1   
    34    12    16 1   
    35    12    27 1   
    36    12    48 1   
    37    13    15 1   
    38    13    49 1   
    39    13    50 1   
    40    14    51 1   
    41    15    18 ar  
    42    16    28 1   
    43    16    32 2   
    44    17    29 1   
    45    17    33 2   
    46    18    19 ar  
    47    18    52 1   
    48    19    56 1   
    49    20    23 1   
    50    20    29 1   
    51    20    57 1   
    52    20    70 1   
    53    21    24 1   
    54    21    29 1   
    55    21    58 1   
    56    21    59 1   
    57    22    35 1   
    58    22    60 1   
    59    23    34 1   
    60    23    61 1   
    61    23    62 1   
    62    24    34 1   
    63    24    63 1   
    64    24    64 1   
    65    25    26 1   
    66    25    30 2   
    67    25    35 1   
    68    26    65 1   
    69    26    66 1   
    70    26    67 1   
    71    28    68 1   
    72    53    69 1   
    73    54    69 1   
    74    55    69 1   
@<TRIPOS>SUBSTRUCTURE
     1 NU2         1 TEMP              0 ****  ****    0 ROOT
