@<TRIPOS>MOLECULE
NU3
   30    32     1     0     0
SMALL
No Charge or Current Charge


@<TRIPOS>ATOM
      1 C           -3.2390     1.7910     0.0100 c          1 NU3       0.622700
      2 N           -4.5310     2.1960    -0.0040 nt         1 NU3      -0.613000
      3 O           -2.3740     2.6510     0.0470 o          1 NU3      -0.576100
      4 C1          -2.9630     0.2950    -0.0200 ca         1 NU3      -0.094600
      5 N1          -0.0810    -1.8140    -0.0160 na         1 NU3      -0.309600
      6 O1           6.0550     0.5330     0.1540 oh         1 NU3      -0.529100
      7 C2          -4.0300    -0.6490    -0.0620 ca         1 NU3      -0.108000
      8 N2          -0.4360     0.4510     0.0310 nc         1 NU3      -0.559100
      9 C3          -3.7780    -2.0390    -0.0900 ca         1 NU3      -0.107000
     10 C4          -2.4590    -2.5200    -0.0770 ca         1 NU3      -0.095000
     11 C5          -1.4270    -1.5790    -0.0350 ca         1 NU3      -0.091200
     12 C6           0.4830    -0.5340     0.0250 cd         1 NU3       0.486400
     13 C7           1.9370    -0.2530     0.0590 ca         1 NU3      -0.160900
     14 C8           2.4160     1.0780     0.0990 ca         1 NU3      -0.038500
     15 C9           3.7970     1.3430     0.1310 ca         1 NU3      -0.183000
     16 C10          4.7160     0.2840     0.1230 ca         1 NU3       0.157100
     17 C11          4.2570    -1.0380     0.0830 ca         1 NU3      -0.183000
     18 C12          2.8780    -1.3090     0.0510 ca         1 NU3      -0.038500
     19 C13         -1.6460    -0.2280    -0.0080 ca         1 NU3       0.117400
     20 HN          -4.7360     3.1830     0.0150 hn         1 NU3       0.311500
     21 HNA         -5.2770     1.5180    -0.0350 hn         1 NU3       0.311500
     22 HN1          0.4080    -2.6980    -0.0270 hn         1 NU3       0.357000
     23 HO1          6.1890     1.5040     0.1800 ho         1 NU3       0.470000
     24 H2          -5.0660    -0.3230    -0.0740 ha         1 NU3       0.115000
     25 H3          -4.6090    -2.7400    -0.1220 ha         1 NU3       0.116000
     26 H4          -2.2510    -3.5880    -0.0980 ha         1 NU3       0.119000
     27 H8           1.7220     1.9160     0.1060 ha         1 NU3       0.126500
     28 H9           4.1420     2.3730     0.1620 ha         1 NU3       0.125500
     29 H11          4.9700    -1.8580     0.0770 ha         1 NU3       0.125500
     30 H12          2.5520    -2.3470     0.0210 ha         1 NU3       0.126500
@<TRIPOS>BOND
     1     1     2 1   
     2     1     3 2   
     3     1     4 1   
     4     2    20 1   
     5     2    21 1   
     6     4     7 ar  
     7     4    19 ar  
     8     5    11 1   
     9     5    12 1   
    10     5    22 1   
    11     6    16 1   
    12     6    23 1   
    13     7     9 ar  
    14     7    24 1   
    15     8    12 2   
    16     8    19 1   
    17     9    10 ar  
    18     9    25 1   
    19    10    11 ar  
    20    10    26 1   
    21    11    19 ar  
    22    12    13 1   
    23    13    14 ar  
    24    13    18 ar  
    25    14    15 ar  
    26    14    27 1   
    27    15    16 ar  
    28    15    28 1   
    29    16    17 ar  
    30    17    18 ar  
    31    17    29 1   
    32    18    30 1   
@<TRIPOS>SUBSTRUCTURE
     1 NU3         1 TEMP              0 ****  ****    0 ROOT
