@<TRIPOS>MOLECULE
NU3
   30    32     1     0     0
SMALL
abcg2


@<TRIPOS>ATOM
      1 C           -3.2330     1.7320     0.2730 c          1 NU3       0.622700
      2 N           -4.2730     2.1850    -0.4460 nt         1 NU3      -0.613000
      3 O           -2.5540     2.4510     0.9910 o          1 NU3      -0.576100
      4 C1          -2.9680     0.2690     0.1510 ca         1 NU3      -0.094600
      5 N1          -0.0830    -1.7540     0.0260 na         1 NU3      -0.309600
      6 O1           5.9610     0.5370     0.0190 oh         1 NU3      -0.529100
      7 C2          -4.0030    -0.6570     0.1010 ca         1 NU3      -0.108000
      8 N2          -0.4570     0.4280     0.1440 nc         1 NU3      -0.559100
      9 C3          -3.7620    -2.0350     0.0420 ca         1 NU3      -0.107000
     10 C4          -2.4750    -2.5410     0.0150 ca         1 NU3      -0.095000
     11 C5          -1.4420    -1.6150     0.0560 ca         1 NU3      -0.091200
     12 C6           0.4590    -0.5070     0.0780 cd         1 NU3       0.486400
     13 C7           1.8930    -0.2510     0.0600 ca         1 NU3      -0.160900
     14 C8           2.3530     1.0610     0.1860 ca         1 NU3      -0.038500
     15 C9           3.7040     1.3480     0.1730 ca         1 NU3      -0.183000
     16 C10          4.6360     0.3200     0.0340 ca         1 NU3       0.157100
     17 C11          4.1910    -0.9950    -0.0960 ca         1 NU3      -0.183000
     18 C12          2.8360    -1.2710    -0.0820 ca         1 NU3      -0.038500
     19 C13         -1.6570    -0.2270     0.1360 ca         1 NU3       0.117400
     20 HN          -4.5260     3.1590    -0.4100 hn         1 NU3       0.311500
     21 HNA         -4.7410     1.6110    -1.1260 hn         1 NU3       0.311500
     22 HN1          0.4130    -2.6290    -0.0300 hn         1 NU3       0.357000
     23 HO1          6.1510     1.4770     0.1210 ho         1 NU3       0.470000
     24 H2          -5.0300    -0.3150     0.1330 ha         1 NU3       0.115000
     25 H3          -4.6020    -2.7150     0.0180 ha         1 NU3       0.116000
     26 H4          -2.2870    -3.6060    -0.0350 ha         1 NU3       0.119000
     27 H8           1.6400     1.8660     0.2960 ha         1 NU3       0.126500
     28 H9           4.0350     2.3760     0.2750 ha         1 NU3       0.125500
     29 H11          4.9080    -1.7980    -0.2060 ha         1 NU3       0.125500
     30 H12          2.5330    -2.3040    -0.1900 ha         1 NU3       0.126500
@<TRIPOS>BOND
     1     1     2 1   
     2     1     3 2   
     3     1     4 1   
     4     2    20 1   
     5     2    21 1   
     6     4     7 ar  
     7     4    19 ar  
     8     5    11 1   
     9     5    12 1   
    10     5    22 1   
    11     6    16 1   
    12     6    23 1   
    13     7     9 ar  
    14     7    24 1   
    15     8    12 2   
    16     8    19 1   
    17     9    10 ar  
    18     9    25 1   
    19    10    11 ar  
    20    10    26 1   
    21    11    19 ar  
    22    12    13 1   
    23    13    14 ar  
    24    13    18 ar  
    25    14    15 ar  
    26    14    27 1   
    27    15    16 ar  
    28    15    28 1   
    29    16    17 ar  
    30    17    18 ar  
    31    17    29 1   
    32    18    30 1   
@<TRIPOS>SUBSTRUCTURE
     1 NU3         1 TEMP              0 ****  ****    0 ROOT
