@<TRIPOS>MOLECULE
NU4
   25    26     1     0     0
SMALL
bcc


@<TRIPOS>ATOM
      1 N1          -0.4880    -0.4740     0.0090 ns         1 NU4      -0.466100
      2 C4           2.2610    -1.5010    -0.2430 cc         1 NU4      -0.249300
      3 C5           1.8610    -0.1300    -0.0840 cc         1 NU4      -0.324900
      4 C6           0.5120     0.4350    -0.1810 c          1 NU4       0.723700
      5 C7          -1.8570    -0.2770    -0.0460 ca         1 NU4       0.114600
      6 C8          -2.4920     0.8780    -0.5030 ca         1 NU4      -0.293300
      7 C10         -4.0490    -1.1750     0.3380 ca         1 NU4       0.421200
      8 C11         -2.6780    -1.3270     0.3780 ca         1 NU4      -0.293300
      9 C2           3.0030     0.5810     0.1640 cd         1 NU4       0.344000
     10 C3           3.5970    -1.5150    -0.0880 cd         1 NU4       0.236600
     11 C9          -3.8770     0.9110    -0.5030 ca         1 NU4       0.421200
     12 N2          -4.6630    -0.0750    -0.0900 nb         1 NU4      -0.682000
     13 O1           4.0490    -0.2620     0.1670 os         1 NU4      -0.328800
     14 O2           0.3050     1.6140    -0.4210 o          1 NU4      -0.581100
     15 H1          -0.2090    -1.3870     0.3440 hn         1 NU4       0.323500
     16 H2           1.6280    -2.3470    -0.4640 ha         1 NU4       0.162000
     17 H3          -1.9530     1.7400    -0.8570 ha         1 NU4       0.153500
     18 H4          -4.6830    -1.9900     0.6710 h4         1 NU4       0.017600
     19 H5           4.0350     2.1060     1.2320 hc         1 NU4       0.069367
     20 H6           3.7270     2.4820    -0.4600 hc         1 NU4       0.069367
     21 H7           2.4060     2.5480     0.6990 hc         1 NU4       0.069367
     22 H8          -2.2520    -2.2530     0.7440 ha         1 NU4       0.153500
     23 H9           4.3370    -2.2970    -0.1190 h4         1 NU4       0.059100
     24 H10         -4.3730     1.8070    -0.8620 h4         1 NU4       0.017600
     25 C1           3.3050     2.0060     0.4280 c3         1 NU4      -0.137400
@<TRIPOS>BOND
     1     1     4 1   
     2     1     5 1   
     3     1    15 1   
     4     2     3 1   
     5     2    10 2   
     6     2    16 1   
     7     3     4 1   
     8     3     9 2   
     9     4    14 2   
    10     5     6 ar  
    11     5     8 ar  
    12     6    11 ar  
    13     6    17 1   
    14     7     8 ar  
    15     7    12 ar  
    16     7    18 1   
    17     8    22 1   
    18     9    13 1   
    19     9    25 1   
    20    10    13 1   
    21    10    23 1   
    22    11    12 ar  
    23    11    24 1   
    24    19    25 1   
    25    20    25 1   
    26    21    25 1   
@<TRIPOS>SUBSTRUCTURE
     1 NU4         1 TEMP              0 ****  ****    0 ROOT
