@<TRIPOS>MOLECULE
NU4
   25    26     1     0     0
SMALL
No Charge or Current Charge


@<TRIPOS>ATOM
      1 N1          -0.4800    -0.4020     0.0150 ns         1 NU4      -0.140000
      2 C4           2.2010    -1.4760     0.2450 cc         1 NU4      -0.166000
      3 C5           1.8910    -0.0980     0.1140 cc         1 NU4      -0.259600
      4 C6           0.5510     0.5270    -0.0080 c          1 NU4       0.656700
      5 C7          -1.8910    -0.2670    -0.0690 ca         1 NU4       0.022000
      6 C8          -2.5660     0.9630    -0.2050 ca         1 NU4      -0.210000
      7 C10         -4.0780    -1.3250    -0.0970 ca         1 NU4       0.355900
      8 C11         -2.6800    -1.4270    -0.0160 ca         1 NU4      -0.210000
      9 C2           3.0960     0.5580     0.1230 cd         1 NU4       0.234300
     10 C3           3.5630    -1.5620     0.3240 cd         1 NU4       0.126900
     11 C9          -3.9680     0.9780    -0.2790 ca         1 NU4       0.355900
     12 N2          -4.7210    -0.1430    -0.2270 nb         1 NU4      -0.682000
     13 O1           4.1490    -0.3200     0.2510 os         1 NU4      -0.240000
     14 O2           0.3820     1.7350    -0.1170 o          1 NU4      -0.581100
     15 H1          -0.1660    -1.3580     0.1110 hn         1 NU4       0.157000
     16 H2           1.5020    -2.3060     0.2780 ha         1 NU4       0.144000
     17 H3          -2.0390     1.9090    -0.2540 ha         1 NU4       0.135500
     18 H4          -4.7030    -2.2160    -0.0570 h4         1 NU4       0.017600
     19 H5           4.5000     2.1950     0.0600 hc         1 NU4       0.069367
     20 H6           3.0500     2.4370    -0.9270 hc         1 NU4       0.069367
     21 H7           2.9570     2.5840     0.8390 hc         1 NU4       0.069367
     22 H8          -2.2240    -2.4080     0.0880 ha         1 NU4       0.135500
     23 H9           4.2140    -2.4200     0.4290 h4         1 NU4       0.059100
     24 H10         -4.5070     1.9190    -0.3840 h4         1 NU4       0.017600
     25 C1           3.4180     2.0220     0.0180 c3         1 NU4      -0.137400
@<TRIPOS>BOND
     1     1     4 1   
     2     1     5 1   
     3     1    15 1   
     4     2     3 1   
     5     2    10 2   
     6     2    16 1   
     7     3     4 1   
     8     3     9 2   
     9     4    14 2   
    10     5     6 ar  
    11     5     8 ar  
    12     6    11 ar  
    13     6    17 1   
    14     7     8 ar  
    15     7    12 ar  
    16     7    18 1   
    17     8    22 1   
    18     9    13 1   
    19     9    25 1   
    20    10    13 1   
    21    10    23 1   
    22    11    12 ar  
    23    11    24 1   
    24    19    25 1   
    25    20    25 1   
    26    21    25 1   
@<TRIPOS>SUBSTRUCTURE
     1 NU4         1 TEMP              0 ****  ****    0 ROOT
