@<TRIPOS>MOLECULE
NU5
   66    69     1     0     0
SMALL
bcc


@<TRIPOS>ATOM
      1 O2           3.4800    -1.0910    -2.0770 o          1 NU5      -0.598800
      2 S1           3.2790    -2.1930    -1.1350 sy         1 NU5       1.090300
      3 O3           3.6000    -3.5510    -1.5760 o          1 NU5      -0.598800
      4 C22          4.2390    -1.8430     0.3340 c3         1 NU5      -0.194600
      5 C23          5.7250    -1.7720     0.0050 c3         1 NU5       0.185800
      6 N6           6.4690    -1.4930     1.2160 n7         1 NU5      -0.797200
      7 C24          7.8800    -1.2720     0.9550 c3         1 NU5       0.155800
      8 C25          8.6400    -1.0000     2.2440 c3         1 NU5      -0.085400
      9 C26         10.1120    -0.7500     1.9790 c3         1 NU5       0.141400
     10 O4          10.7650    -0.5050     3.2060 oh         1 NU5      -0.597800
     11 C19          1.6040    -2.1610    -0.5910 ca         1 NU5      -0.317500
     12 C18          0.8990    -0.9660    -0.5980 ca         1 NU5       0.002000
     13 C17         -0.4180    -0.9250    -0.1790 ca         1 NU5      -0.203500
     14 C16         -1.0550    -2.0970     0.2520 ca         1 NU5       0.248600
     15 C21         -0.3220    -3.2960     0.2570 ca         1 NU5      -0.203500
     16 C20          0.9900    -3.3320    -0.1600 ca         1 NU5       0.002000
     17 N2          -2.3610    -2.1800     0.6780 nu         1 NU5      -0.732300
     18 C2          -3.3640    -1.2480     0.7640 ca         1 NU5       0.963900
     19 N1          -3.1080     0.0110     0.3980 nb         1 NU5      -0.871000
     20 C6          -4.0690     0.9110     0.4710 ca         1 NU5       0.791600
     21 C5          -5.3350     0.5400     0.9330 ca         1 NU5      -0.218200
     22 N7          -6.5170     1.2100     1.1260 nc         1 NU5      -0.508100
     23 C8          -7.3270     0.2980     1.5760 cd         1 NU5       0.393700
     24 N9          -6.7480    -0.9320     1.6920 na         1 NU5      -0.364000
     25 C4          -5.4610    -0.8030     1.2830 ca         1 NU5       0.479800
     26 N3          -4.5140    -1.7290     1.2170 nb         1 NU5      -0.795000
     27 O6          -3.8530     2.1580     0.1160 os         1 NU5      -0.403100
     28 C9          -2.5540     2.5350    -0.3570 c3         1 NU5       0.146400
     29 C10         -2.5970     3.9950    -0.7620 c6         1 NU5      -0.067700
     30 C15         -1.1870     4.4460    -1.1480 c6         1 NU5      -0.071400
     31 C14         -1.1590     5.9070    -1.5840 c6         1 NU5      -0.072900
     32 C13         -2.1390     6.1650    -2.7230 c6         1 NU5      -0.076400
     33 C12         -3.5470     5.7200    -2.3440 c6         1 NU5      -0.072900
     34 C11         -3.5730     4.2570    -1.9100 c6         1 NU5      -0.071400
     35 H221         4.0200    -2.6370     1.0520 h1         1 NU5       0.100700
     36 H222         3.8810    -0.8960     0.7410 h1         1 NU5       0.100700
     37 H231         5.8970    -0.9550    -0.6990 h1         1 NU5       0.049200
     38 H232         6.0450    -2.6970    -0.4930 h1         1 NU5       0.049200
     39 HN6          6.3740    -2.2820     1.8450 hn         1 NU5       0.352800
     40 H241         7.9700    -0.4080     0.2890 h1         1 NU5       0.031200
     41 H242         8.3450    -2.1190     0.4250 h1         1 NU5       0.031200
     42 H251         8.5340    -1.8550     2.9190 hc         1 NU5       0.059700
     43 H252         8.2010    -0.1330     2.7450 hc         1 NU5       0.059700
     44 H261        10.2160     0.1020     1.2920 h1         1 NU5       0.015700
     45 H262        10.5420    -1.6210     1.4660 h1         1 NU5       0.015700
     46 HO4         11.7020    -0.3820     3.0260 ho         1 NU5       0.404000
     47 H18          1.3650    -0.0490    -0.9340 ha         1 NU5       0.153500
     48 H17         -0.9500     0.0110    -0.1930 ha         1 NU5       0.153000
     49 H21         -0.7960    -4.2130     0.5850 ha         1 NU5       0.153000
     50 H20          1.5220    -4.2740    -0.1540 ha         1 NU5       0.153500
     51 HN2         -2.6660    -3.1000     0.9600 hn         1 NU5       0.459800
     52 H8          -8.3610     0.4560     1.8430 h5         1 NU5       0.070800
     53 HN9         -7.1990    -1.7750     2.0140 hn         1 NU5       0.320700
     54 H91         -1.8170     2.3730     0.4340 h1         1 NU5       0.052200
     55 H92         -2.2740     1.9100    -1.2110 h1         1 NU5       0.052200
     56 H10         -2.9130     4.5850     0.1090 hc         1 NU5       0.063700
     57 H151        -0.5030     4.2920    -0.3080 hc         1 NU5       0.043950
     58 H152        -0.8210     3.8180    -1.9690 hc         1 NU5       0.043950
     59 H141        -1.4170     6.5460    -0.7320 hc         1 NU5       0.040950
     60 H142        -0.1460     6.1850    -1.8830 hc         1 NU5       0.040950
     61 H131        -2.1350     7.2230    -2.9950 hc         1 NU5       0.039700
     62 H132        -1.8120     5.6130    -3.6120 hc         1 NU5       0.039700
     63 H121        -3.9160     6.3450    -1.5240 hc         1 NU5       0.040950
     64 H122        -4.2330     5.8710    -3.1810 hc         1 NU5       0.040950
     65 H111        -3.3000     3.6200    -2.7600 hc         1 NU5       0.043950
     66 H112        -4.5890     3.9750    -1.6220 hc         1 NU5       0.043950
@<TRIPOS>BOND
     1     1     2 2   
     2     2     3 2   
     3     2     4 1   
     4     2    11 1   
     5     4     5 1   
     6     4    35 1   
     7     4    36 1   
     8     5     6 1   
     9     5    37 1   
    10     5    38 1   
    11     6     7 1   
    12     6    39 1   
    13     7     8 1   
    14     7    40 1   
    15     7    41 1   
    16     8     9 1   
    17     8    42 1   
    18     8    43 1   
    19     9    10 1   
    20     9    44 1   
    21     9    45 1   
    22    10    46 1   
    23    11    12 ar  
    24    11    16 ar  
    25    12    13 ar  
    26    12    47 1   
    27    13    14 ar  
    28    13    48 1   
    29    14    15 ar  
    30    14    17 1   
    31    15    16 ar  
    32    15    49 1   
    33    16    50 1   
    34    17    18 1   
    35    17    51 1   
    36    18    19 ar  
    37    18    26 ar  
    38    19    20 ar  
    39    20    21 ar  
    40    20    27 1   
    41    21    22 1   
    42    21    25 ar  
    43    22    23 2   
    44    23    24 1   
    45    23    52 1   
    46    24    25 1   
    47    24    53 1   
    48    25    26 ar  
    49    27    28 1   
    50    28    29 1   
    51    28    54 1   
    52    28    55 1   
    53    29    30 1   
    54    29    34 1   
    55    29    56 1   
    56    30    31 1   
    57    30    57 1   
    58    30    58 1   
    59    31    32 1   
    60    31    59 1   
    61    31    60 1   
    62    32    33 1   
    63    32    61 1   
    64    32    62 1   
    65    33    34 1   
    66    33    63 1   
    67    33    64 1   
    68    34    65 1   
    69    34    66 1   
@<TRIPOS>SUBSTRUCTURE
     1 NU5         1 TEMP              0 ****  ****    0 ROOT
