@<TRIPOS>MOLECULE
NU5
   66    69     1     0     0
SMALL
No Charge or Current Charge


@<TRIPOS>ATOM
      1 O2           3.9870     0.0130    -1.5140 o          1 NU5      -0.528000
      2 S1           3.7230    -1.3840    -1.1440 sy         1 NU5       1.059500
      3 O3           3.9770    -2.4820    -2.0860 o          1 NU5      -0.528000
      4 C22          4.6910    -1.7270     0.3310 c3         1 NU5      -0.305400
      5 C23          6.1900    -1.6670     0.0410 c3         1 NU5       0.185800
      6 N6           6.9050    -1.9290     1.2960 n7         1 NU5      -0.852400
      7 C24          8.3750    -1.8910     1.1990 c3         1 NU5       0.155800
      8 C25          9.0070    -2.1520     2.5790 c3         1 NU5      -0.085400
      9 C26         10.5460    -2.1100     2.5390 c3         1 NU5       0.164600
     10 O4          11.0720    -2.3610     3.8460 oh         1 NU5      -0.660000
     11 C19          2.0250    -1.5120    -0.5540 ca         1 NU5      -0.317500
     12 C18          1.3700    -0.3780    -0.0360 ca         1 NU5       0.020000
     13 C17          0.0500    -0.4860     0.4310 ca         1 NU5      -0.185500
     14 C16         -0.6290    -1.7160     0.3800 ca         1 NU5       0.387000
     15 C21          0.0370    -2.8460    -0.1170 ca         1 NU5      -0.185500
     16 C20          1.3570    -2.7510    -0.5880 ca         1 NU5       0.020000
     17 N2          -1.9370    -1.8670     0.8460 nu         1 NU5      -0.925900
     18 C2          -3.0320    -1.0290     0.9530 ca         1 NU5       0.437900
     19 N1          -2.9530     0.1940     0.4010 nb         1 NU5      -0.345000
     20 C6          -4.0450     0.9820     0.5120 ca         1 NU5       0.463300
     21 C5          -5.1980     0.5020     1.1780 ca         1 NU5      -0.087600
     22 N7          -6.4190     1.1320     1.4060 nc         1 NU5      -0.508100
     23 C8          -7.1070     0.1920     2.0770 cd         1 NU5       0.393700
     24 N9          -6.3800    -0.9890     2.2790 na         1 NU5      -0.414300
     25 C4          -5.1660    -0.7650     1.6970 ca         1 NU5       0.151500
     26 N3          -4.0880    -1.5590     1.5960 nb         1 NU5      -0.269000
     27 O6          -4.0520     2.2560    -0.0210 os         1 NU5      -0.426300
     28 C9          -2.8980     2.7780    -0.7050 c3         1 NU5       0.169600
     29 C10         -3.2020     4.2200    -1.2020 c6         1 NU5      -0.067700
     30 C15         -1.9310     4.8790    -1.8090 c6         1 NU5      -0.071400
     31 C14         -2.2160     6.3200    -2.3000 c6         1 NU5      -0.072900
     32 C13         -3.3820     6.3460    -3.3170 c6         1 NU5      -0.076400
     33 C12         -4.6540     5.6950    -2.7220 c6         1 NU5      -0.072900
     34 C11         -4.3720     4.2540    -2.2300 c6         1 NU5      -0.071400
     35 H221         4.4000    -2.7220     0.6830 h1         1 NU5       0.100700
     36 H222         4.4130    -0.9780     1.0790 h1         1 NU5       0.100700
     37 H231         6.4520    -0.6740    -0.3530 h1         1 NU5       0.049200
     38 H232         6.4520    -2.4160    -0.7220 h1         1 NU5       0.049200
     39 HN6          6.6300    -2.8600     1.6310 hn         1 NU5       0.408000
     40 H241         8.7070    -0.9090     0.8340 h1         1 NU5       0.031200
     41 H242         8.7320    -2.6510     0.4900 h1         1 NU5       0.031200
     42 H251         8.6830    -3.1320     2.9480 hc         1 NU5       0.059700
     43 H252         8.6450    -1.3990     3.2900 hc         1 NU5       0.059700
     44 H261        10.8740    -1.1250     2.1800 h1         1 NU5       0.015700
     45 H262        10.9110    -2.8670     1.8310 h1         1 NU5       0.015700
     46 HO4         12.0520    -2.3240     3.7710 ho         1 NU5       0.443000
     47 H18          1.8780     0.5840     0.0150 ha         1 NU5       0.135500
     48 H17         -0.4300     0.3910     0.8500 ha         1 NU5       0.135000
     49 H21         -0.4720    -3.8050    -0.1500 ha         1 NU5       0.135000
     50 H20          1.8520    -3.6420    -0.9750 ha         1 NU5       0.135500
     51 HN2         -2.1710    -2.8280     1.0870 hn         1 NU5       0.515000
     52 H8          -8.1220     0.2940     2.4430 h5         1 NU5       0.070800
     53 HN9         -6.6980    -1.8220     2.7560 hn         1 NU5       0.371000
     54 H91         -2.0330     2.8090    -0.0280 h1         1 NU5       0.052200
     55 H92         -2.6360     2.1490    -1.5670 h1         1 NU5       0.052200
     56 H10         -3.4970     4.7950    -0.3130 hc         1 NU5       0.063700
     57 H151        -1.1260     4.9000    -1.0620 hc         1 NU5       0.043950
     58 H152        -1.5600     4.2730    -2.6480 hc         1 NU5       0.043950
     59 H141        -2.4590     6.9620    -1.4420 hc         1 NU5       0.040950
     60 H142        -1.3120     6.7430    -2.7590 hc         1 NU5       0.040950
     61 H131        -3.5960     7.3810    -3.6140 hc         1 NU5       0.039700
     62 H132        -3.0870     5.8130    -4.2320 hc         1 NU5       0.039700
     63 H121        -5.0250     6.3050    -1.8860 hc         1 NU5       0.040950
     64 H122        -5.4530     5.6820    -3.4760 hc         1 NU5       0.040950
     65 H111        -4.1320     3.6130    -3.0890 hc         1 NU5       0.043950
     66 H112        -5.2850     3.8410    -1.7800 hc         1 NU5       0.043950
@<TRIPOS>BOND
     1     1     2 2   
     2     2     3 2   
     3     2     4 1   
     4     2    11 1   
     5     4     5 1   
     6     4    35 1   
     7     4    36 1   
     8     5     6 1   
     9     5    37 1   
    10     5    38 1   
    11     6     7 1   
    12     6    39 1   
    13     7     8 1   
    14     7    40 1   
    15     7    41 1   
    16     8     9 1   
    17     8    42 1   
    18     8    43 1   
    19     9    10 1   
    20     9    44 1   
    21     9    45 1   
    22    10    46 1   
    23    11    12 ar  
    24    11    16 ar  
    25    12    13 ar  
    26    12    47 1   
    27    13    14 ar  
    28    13    48 1   
    29    14    15 ar  
    30    14    17 1   
    31    15    16 ar  
    32    15    49 1   
    33    16    50 1   
    34    17    18 1   
    35    17    51 1   
    36    18    19 ar  
    37    18    26 ar  
    38    19    20 ar  
    39    20    21 ar  
    40    20    27 1   
    41    21    22 1   
    42    21    25 ar  
    43    22    23 2   
    44    23    24 1   
    45    23    52 1   
    46    24    25 1   
    47    24    53 1   
    48    25    26 ar  
    49    27    28 1   
    50    28    29 1   
    51    28    54 1   
    52    28    55 1   
    53    29    30 1   
    54    29    34 1   
    55    29    56 1   
    56    30    31 1   
    57    30    57 1   
    58    30    58 1   
    59    31    32 1   
    60    31    59 1   
    61    31    60 1   
    62    32    33 1   
    63    32    61 1   
    64    32    62 1   
    65    33    34 1   
    66    33    63 1   
    67    33    64 1   
    68    34    65 1   
    69    34    66 1   
@<TRIPOS>SUBSTRUCTURE
     1 NU5         1 TEMP              0 ****  ****    0 ROOT
