@<TRIPOS>MOLECULE
NU6
   49    52     1     0     0
SMALL
No Charge or Current Charge


@<TRIPOS>ATOM
      1 O01          6.6810     0.8120    -1.2620 o          1 NU6      -0.606100
      2 C02          6.3300    -0.1240    -0.5620 c          1 NU6       0.616700
      3 N03          7.2020    -1.1290    -0.3290 nt         1 NU6      -0.603000
      4 C04          4.9500    -0.2100     0.0630 ca         1 NU6      -0.120600
      5 C05          4.5610    -1.3020     0.8740 ca         1 NU6      -0.121000
      6 C06          3.2770    -1.3440     1.4420 ca         1 NU6      -0.095000
      7 C07          2.3630    -0.3060     1.2030 ca         1 NU6      -0.120000
      8 C08          2.7210     0.7830     0.3860 ca         1 NU6       0.318000
      9 N09          1.8460     1.8470     0.1310 nu         1 NU6      -0.927900
     10 C10          0.4690     1.9790     0.0680 ca         1 NU6       0.444900
     11 N11          0.0300     3.2420    -0.0840 nb         1 NU6      -0.275000
     12 C12         -1.3010     3.3820    -0.1600 ca         1 NU6       0.156500
     13 N13         -2.0930     4.4760    -0.3080 na         1 NU6      -0.417300
     14 C14         -3.4210     4.0610    -0.3270 cc         1 NU6       0.389700
     15 N15         -3.5020     2.7240    -0.1950 nd         1 NU6      -0.510100
     16 C16         -2.1640     2.3200    -0.0920 ca         1 NU6      -0.095600
     17 C17         -1.6200     1.0240     0.0630 ca         1 NU6       0.461300
     18 O18         -2.4670    -0.0640     0.1330 os         1 NU6      -0.428300
     19 C19         -1.9460    -1.3970     0.2890 c3         1 NU6       0.169600
     20 C20         -3.1260    -2.4100     0.3250 c6         1 NU6      -0.067700
     21 C21         -3.9410    -2.4120    -1.0020 c6         1 NU6      -0.071400
     22 C22         -5.1040    -3.4340    -0.9530 c6         1 NU6      -0.072900
     23 C23         -4.5900    -4.8560    -0.6220 c6         1 NU6      -0.075400
     24 C24         -3.7840    -4.8630     0.6990 c6         1 NU6      -0.072900
     25 C25         -2.6190    -3.8440     0.6500 c6         1 NU6      -0.071400
     26 N26         -0.2800     0.8640     0.1410 nb         1 NU6      -0.351000
     27 C27          4.0130     0.8270    -0.1650 ca         1 NU6      -0.122000
     28 H1           6.9330    -1.9110     0.2460 hn         1 NU6       0.314500
     29 H2           8.1230    -1.0840    -0.7390 hn         1 NU6       0.314500
     30 H3           5.2430    -2.1220     1.0800 ha         1 NU6       0.111000
     31 H4           2.9910    -2.1820     2.0750 ha         1 NU6       0.114000
     32 H5           1.3870    -0.3450     1.6730 ha         1 NU6       0.147000
     33 H6           2.3170     2.7060    -0.1520 hn         1 NU6       0.515000
     34 H7          -1.7770     5.4330    -0.3900 hn         1 NU6       0.370000
     35 H8          -4.2500     4.7510    -0.4350 h5         1 NU6       0.067800
     36 H10         -1.2760    -1.6550    -0.5420 h1         1 NU6       0.051200
     37 H11         -1.3790    -1.4790     1.2260 h1         1 NU6       0.051200
     38 H12         -3.7850    -2.0840     1.1430 hc         1 NU6       0.063700
     39 H13         -4.3470    -1.4110    -1.2000 hc         1 NU6       0.043700
     40 H14         -3.2780    -2.6510    -1.8460 hc         1 NU6       0.043700
     41 H15         -5.8390    -3.1210    -0.1980 hc         1 NU6       0.040450
     42 H16         -5.6320    -3.4430    -1.9170 hc         1 NU6       0.040450
     43 H17         -5.4380    -5.5510    -0.5460 hc         1 NU6       0.038700
     44 H18         -3.9590    -5.2220    -1.4440 hc         1 NU6       0.038700
     45 H19         -4.4490    -4.6250     1.5400 hc         1 NU6       0.040450
     46 H20         -3.3900    -5.8710     0.8890 hc         1 NU6       0.040450
     47 H21         -1.8860    -4.1600    -0.1060 hc         1 NU6       0.043700
     48 H22         -2.0910    -3.8460     1.6130 hc         1 NU6       0.043700
     49 H23          4.2910     1.6740    -0.7870 ha         1 NU6       0.136000
@<TRIPOS>BOND
     1     1     2 2   
     2     2     3 1   
     3     2     4 1   
     4     3    28 1   
     5     3    29 1   
     6     4     5 ar  
     7     4    27 ar  
     8     5     6 ar  
     9     5    30 1   
    10     6     7 ar  
    11     6    31 1   
    12     7     8 ar  
    13     7    32 1   
    14     8     9 1   
    15     8    27 ar  
    16     9    10 1   
    17     9    33 1   
    18    10    11 ar  
    19    10    26 ar  
    20    11    12 ar  
    21    12    13 1   
    22    12    16 ar  
    23    13    14 1   
    24    13    34 1   
    25    14    15 2   
    26    14    35 1   
    27    15    16 1   
    28    16    17 ar  
    29    17    18 1   
    30    17    26 ar  
    31    18    19 1   
    32    19    20 1   
    33    19    36 1   
    34    19    37 1   
    35    20    21 1   
    36    20    25 1   
    37    20    38 1   
    38    21    22 1   
    39    21    39 1   
    40    21    40 1   
    41    22    23 1   
    42    22    41 1   
    43    22    42 1   
    44    23    24 1   
    45    23    43 1   
    46    23    44 1   
    47    24    25 1   
    48    24    45 1   
    49    24    46 1   
    50    25    47 1   
    51    25    48 1   
    52    27    49 1   
@<TRIPOS>SUBSTRUCTURE
     1 NU6         1 TEMP              0 ****  ****    0 ROOT
