@<TRIPOS>MOLECULE
NU6
   49    52     1     0     0
SMALL
bcc


@<TRIPOS>ATOM
      1 O01          6.6040     0.9260    -0.8560 o          1 NU6      -0.606100
      2 C02          6.2450    -0.0460    -0.2040 c          1 NU6       0.683700
      3 N03          7.1110    -0.9260     0.3190 nt         1 NU6      -0.670000
      4 C04          4.7930    -0.3120     0.0510 ca         1 NU6      -0.120600
      5 C05          4.3010    -1.5720     0.3890 ca         1 NU6      -0.139000
      6 C06          2.9400    -1.7300     0.5870 ca         1 NU6      -0.113000
      7 C07          2.0560    -0.6690     0.4600 ca         1 NU6      -0.138000
      8 C08          2.5390     0.5960     0.1110 ca         1 NU6       0.179600
      9 N09          1.7640     1.7370    -0.0410 nu         1 NU6      -0.734300
     10 C10          0.4120     1.9280    -0.0430 ca         1 NU6       0.970900
     11 N11          0.0320     3.1870    -0.2380 nb         1 NU6      -0.801000
     12 C12         -1.2860     3.3250    -0.2380 ca         1 NU6       0.484800
     13 N13         -2.0210     4.4530    -0.4110 na         1 NU6      -0.367000
     14 C14         -3.3350     4.0890    -0.3340 cc         1 NU6       0.389700
     15 N15         -3.5060     2.8180    -0.1260 nd         1 NU6      -0.510100
     16 C16         -2.2310     2.3140    -0.0610 ca         1 NU6      -0.226200
     17 C17         -1.6930     1.0380     0.1300 ca         1 NU6       0.789600
     18 O18         -2.5010     0.0130     0.2980 os         1 NU6      -0.405100
     19 C19         -1.9330    -1.2950     0.4370 c3         1 NU6       0.146400
     20 C20         -3.0530    -2.3140     0.4710 c6         1 NU6      -0.067700
     21 C21         -3.8980    -2.3050    -0.8040 c6         1 NU6      -0.071400
     22 C22         -4.9650    -3.3940    -0.7780 c6         1 NU6      -0.072900
     23 C23         -4.3570    -4.7730    -0.5430 c6         1 NU6      -0.075400
     24 C24         -3.5120    -4.7890     0.7260 c6         1 NU6      -0.072900
     25 C25         -2.4460    -3.7000     0.7010 c6         1 NU6      -0.071400
     26 N26         -0.3870     0.8720     0.1390 nb         1 NU6      -0.877000
     27 C27          3.9130     0.7500    -0.0960 ca         1 NU6      -0.140000
     28 H1           6.8310    -1.6620     0.9440 hn         1 NU6       0.314500
     29 H2           8.1000    -0.7900     0.1880 hn         1 NU6       0.314500
     30 H3           4.9520    -2.4320     0.4760 ha         1 NU6       0.129000
     31 H4           2.5480    -2.7050     0.8460 ha         1 NU6       0.132000
     32 H5           1.0030    -0.8250     0.6230 ha         1 NU6       0.165000
     33 H6           2.2800     2.5830    -0.2290 hn         1 NU6       0.459800
     34 H7          -1.6700     5.3860    -0.5660 hn         1 NU6       0.319700
     35 H8          -4.1240     4.8170    -0.4440 h5         1 NU6       0.067800
     36 H10         -1.2600    -1.4930    -0.4030 h1         1 NU6       0.051200
     37 H11         -1.3420    -1.3400     1.3570 h1         1 NU6       0.051200
     38 H12         -3.7050    -2.0880     1.3240 hc         1 NU6       0.063700
     39 H13         -4.3670    -1.3290    -0.9440 hc         1 NU6       0.043700
     40 H14         -3.2380    -2.4600    -1.6670 hc         1 NU6       0.043700
     41 H15         -5.6840    -3.1780     0.0200 hc         1 NU6       0.040450
     42 H16         -5.5310    -3.3820    -1.7130 hc         1 NU6       0.040450
     43 H17         -5.1450    -5.5270    -0.4800 hc         1 NU6       0.038700
     44 H18         -3.7340    -5.0460    -1.4010 hc         1 NU6       0.038700
     45 H19         -4.1620    -4.6380     1.5940 hc         1 NU6       0.040450
     46 H20         -3.0420    -5.7670     0.8570 hc         1 NU6       0.040450
     47 H21         -1.7260    -3.9130    -0.0990 hc         1 NU6       0.043700
     48 H22         -1.8790    -3.7080     1.6370 hc         1 NU6       0.043700
     49 H23          4.3020     1.7220    -0.3750 ha         1 NU6       0.154000
@<TRIPOS>BOND
     1     1     2 2   
     2     2     3 1   
     3     2     4 1   
     4     3    28 1   
     5     3    29 1   
     6     4     5 ar  
     7     4    27 ar  
     8     5     6 ar  
     9     5    30 1   
    10     6     7 ar  
    11     6    31 1   
    12     7     8 ar  
    13     7    32 1   
    14     8     9 1   
    15     8    27 ar  
    16     9    10 1   
    17     9    33 1   
    18    10    11 ar  
    19    10    26 ar  
    20    11    12 ar  
    21    12    13 1   
    22    12    16 ar  
    23    13    14 1   
    24    13    34 1   
    25    14    15 2   
    26    14    35 1   
    27    15    16 1   
    28    16    17 ar  
    29    17    18 1   
    30    17    26 ar  
    31    18    19 1   
    32    19    20 1   
    33    19    36 1   
    34    19    37 1   
    35    20    21 1   
    36    20    25 1   
    37    20    38 1   
    38    21    22 1   
    39    21    39 1   
    40    21    40 1   
    41    22    23 1   
    42    22    41 1   
    43    22    42 1   
    44    23    24 1   
    45    23    43 1   
    46    23    44 1   
    47    24    25 1   
    48    24    45 1   
    49    24    46 1   
    50    25    47 1   
    51    25    48 1   
    52    27    49 1   
@<TRIPOS>SUBSTRUCTURE
     1 NU6         1 TEMP              0 ****  ****    0 ROOT
