@<TRIPOS>MOLECULE
NU7
   61    65     1     0     0
SMALL
bcc


@<TRIPOS>ATOM
      1 C1           5.9050    -3.9680     1.6130 c3         1 NU7       0.154100
      2 N2           4.7690    -4.0150     0.7150 n3         1 NU7      -0.715600
      3 F01         -8.5320    -0.5840    -0.4190 f          1 NU7      -0.205300
      4 F03         -8.0700     0.3930     1.4470 f          1 NU7      -0.205300
      5 F04         -8.4160    -1.7370     1.3940 f          1 NU7      -0.205300
      6 C05         -6.4220    -0.9290     0.5020 cc         1 NU7       0.402700
      7 N06         -5.4570    -0.1650     0.8480 nd         1 NU7      -0.658000
      8 C07         -4.3700    -0.8540     0.3770 cd         1 NU7       0.615500
      9 N08         -4.6870    -1.9680    -0.2160 nc         1 NU7      -0.342300
     10 O09         -6.0460    -2.0200    -0.1330 os         1 NU7      -0.094100
     11 C10         -2.9970    -0.3790     0.5280 ca         1 NU7      -0.165500
     12 C11         -2.7570     0.8360     1.1650 ca         1 NU7      -0.063000
     13 C12         -1.4560     1.2870     1.3150 ca         1 NU7      -0.149000
     14 C13         -0.3970     0.5410     0.8230 ca         1 NU7      -0.081000
     15 C14         -0.6300    -0.6720     0.1740 ca         1 NU7      -0.159600
     16 C15         -1.9320    -1.1330     0.0450 ca         1 NU7      -0.037000
     17 C16          0.4760    -1.5280    -0.3690 c          1 NU7       0.683700
     18 O17          0.3270    -2.7350    -0.5010 o          1 NU7      -0.607100
     19 N18          1.5910    -0.8650    -0.7010 ns         1 NU7      -0.563900
     20 C19          2.8170    -1.4680    -1.1560 c3         1 NU7       0.115000
     21 C20          4.0040    -1.2780    -0.1860 c6         1 NU7      -0.097300
     22 C21          5.2180    -2.0390    -0.7520 c6         1 NU7      -0.105400
     23 C22          5.0640    -3.5570    -0.6290 c6         1 NU7       0.164800
     24 C24          3.5900    -3.3490     1.2370 c6         1 NU7       0.164800
     25 C25          3.6860    -1.8230     1.2220 c6         1 NU7      -0.105400
     26 C26          4.3090     0.1960    -0.0690 cc         1 NU7       0.450700
     27 N27          3.4420     1.1430    -0.2300 nd         1 NU7      -0.682000
     28 C28          3.9560     2.3900     0.0110 cd         1 NU7       0.419800
     29 C29          5.2720     2.3850     0.3670 cc         1 NU7      -0.202400
     30 S30          5.8710     0.7840     0.3980 ss         1 NU7      -0.160300
     31 C31          3.0910     3.5670    -0.1350 ca         1 NU7      -0.122500
     32 C32          3.4850     4.8170     0.3480 ca         1 NU7      -0.108000
     33 C33          2.6650     5.9240     0.2000 ca         1 NU7      -0.132000
     34 C34          1.4310     5.8040    -0.4280 ca         1 NU7      -0.118000
     35 C35          1.0270     4.5650    -0.9070 ca         1 NU7      -0.132000
     36 C36          1.8490     3.4570    -0.7620 ca         1 NU7      -0.108000
     37 H1           6.2890    -2.9640     1.8420 h1         1 NU7       0.029700
     38 H1A          5.6360    -4.4340     2.5620 h1         1 NU7       0.029700
     39 H1B          6.7310    -4.5400     1.1880 h1         1 NU7       0.029700
     40 H11         -3.5800     1.4250     1.5460 ha         1 NU7       0.156000
     41 H12         -1.2640     2.2220     1.8240 ha         1 NU7       0.143000
     42 H13          0.6100     0.9080     0.9810 ha         1 NU7       0.145000
     43 H15         -2.1150    -2.0810    -0.4440 ha         1 NU7       0.171000
     44 HN18         1.6420     0.1370    -0.5940 hn         1 NU7       0.341500
     45 H19          2.6320    -2.5260    -1.3190 h1         1 NU7       0.063200
     46 H19A         3.0900    -1.0420    -2.1250 h1         1 NU7       0.063200
     47 H21          5.3760    -1.7660    -1.7990 hc         1 NU7       0.050700
     48 H21A         6.1260    -1.7390    -0.2200 hc         1 NU7       0.050700
     49 H22          5.9810    -4.0390    -0.9750 h1         1 NU7       0.061700
     50 H22A         4.2680    -3.9090    -1.2930 h1         1 NU7       0.061700
     51 H24          2.7200    -3.6760     0.6580 h1         1 NU7       0.061700
     52 H24A         3.4170    -3.6870     2.2620 h1         1 NU7       0.061700
     53 H25          4.4740    -1.5030     1.9100 hc         1 NU7       0.050700
     54 H25A         2.7580    -1.3830     1.5970 hc         1 NU7       0.050700
     55 H29          5.9160     3.2210     0.5880 h4         1 NU7       0.182000
     56 H32          4.4360     4.9310     0.8540 ha         1 NU7       0.135000
     57 H33          2.9890     6.8830     0.5810 ha         1 NU7       0.133500
     58 H34          0.7910     6.6690    -0.5430 ha         1 NU7       0.133000
     59 H35          0.0690     4.4580    -1.3990 ha         1 NU7       0.133500
     60 H36          1.5230     2.5010    -1.1490 ha         1 NU7       0.135000
     61 C02         -7.8890    -0.7080     0.7380 c3         1 NU7       0.680600
@<TRIPOS>BOND
     1     1     2 1   
     2     1    37 1   
     3     1    38 1   
     4     1    39 1   
     5     2    23 1   
     6     2    24 1   
     7     3    61 1   
     8     4    61 1   
     9     5    61 1   
    10     6     7 2   
    11     6    10 1   
    12     6    61 1   
    13     7     8 1   
    14     8     9 2   
    15     8    11 1   
    16     9    10 1   
    17    11    12 ar  
    18    11    16 ar  
    19    12    13 ar  
    20    12    40 1   
    21    13    14 ar  
    22    13    41 1   
    23    14    15 ar  
    24    14    42 1   
    25    15    16 ar  
    26    15    17 1   
    27    16    43 1   
    28    17    18 2   
    29    17    19 1   
    30    19    20 1   
    31    19    44 1   
    32    20    21 1   
    33    20    45 1   
    34    20    46 1   
    35    21    22 1   
    36    21    25 1   
    37    21    26 1   
    38    22    23 1   
    39    22    47 1   
    40    22    48 1   
    41    23    49 1   
    42    23    50 1   
    43    24    25 1   
    44    24    51 1   
    45    24    52 1   
    46    25    53 1   
    47    25    54 1   
    48    26    27 2   
    49    26    30 1   
    50    27    28 1   
    51    28    29 2   
    52    28    31 1   
    53    29    30 1   
    54    29    55 1   
    55    31    32 ar  
    56    31    36 ar  
    57    32    33 ar  
    58    32    56 1   
    59    33    34 ar  
    60    33    57 1   
    61    34    35 ar  
    62    34    58 1   
    63    35    36 ar  
    64    35    59 1   
    65    36    60 1   
@<TRIPOS>SUBSTRUCTURE
     1 NU7         1 TEMP              0 ****  ****    0 ROOT
