@<TRIPOS>MOLECULE
NU7
   61    65     1     0     0
SMALL
No Charge or Current Charge


@<TRIPOS>ATOM
      1 C1           5.6970    -4.1800     1.5150 c3         1 NU7       0.154100
      2 N2           4.6830    -4.0970     0.4350 n3         1 NU7      -0.715600
      3 F01         -8.7920    -1.7870     0.5580 f          1 NU7      -0.084000
      4 F03         -8.3390    -0.1110     1.8710 f          1 NU7      -0.084000
      5 F04         -8.2430    -2.1480     2.6340 f          1 NU7      -0.084000
      6 C05         -6.5120    -1.4730     1.1510 cc         1 NU7       0.358300
      7 N06         -5.6170    -0.5020     1.0820 nd         1 NU7      -0.658000
      8 C07         -4.4850    -1.1690     0.6670 cd         1 NU7       0.615500
      9 N08         -4.6540    -2.4710     0.4850 nc         1 NU7      -0.342300
     10 O09         -6.0110    -2.6900     0.8070 os         1 NU7      -0.049700
     11 C10         -3.1920    -0.4850     0.4430 ca         1 NU7      -0.165500
     12 C11         -3.0710     0.9060     0.6530 ca         1 NU7      -0.045000
     13 C12         -1.8440     1.5530     0.4410 ca         1 NU7      -0.131000
     14 C13         -0.7200     0.8280     0.0170 ca         1 NU7      -0.063000
     15 C14         -0.8120    -0.5680    -0.2030 ca         1 NU7      -0.159600
     16 C15         -2.0540    -1.2090     0.0150 ca         1 NU7      -0.019000
     17 C16          0.3740    -1.3930    -0.6590 c          1 NU7       0.616700
     18 O17          0.3040    -2.6040    -0.8170 o          1 NU7      -0.607100
     19 N18          1.5430    -0.7050    -0.8840 ns         1 NU7      -0.496900
     20 C19          2.8410    -1.2940    -1.2330 c3         1 NU7       0.115000
     21 C20          3.8950    -1.2260    -0.0650 c6         1 NU7      -0.097300
     22 C21          5.2480    -1.8460    -0.5580 c6         1 NU7      -0.105400
     23 C22          5.1590    -3.3820    -0.7830 c6         1 NU7       0.164800
     24 C24          3.3600    -3.5800     0.8880 c6         1 NU7       0.164800
     25 C25          3.4020    -2.0530     1.1740 c6         1 NU7      -0.105400
     26 C26          4.1440     0.2320     0.3560 cc         1 NU7       0.450700
     27 N27          3.5610     1.2910    -0.2040 nd         1 NU7      -0.682000
     28 C28          3.9680     2.4720     0.3980 cd         1 NU7       0.354500
     29 C29          4.8740     2.3040     1.4180 cc         1 NU7      -0.264000
     30 S30          5.2530     0.6270     1.6560 ss         1 NU7      -0.015400
     31 C31          3.4240     3.7740    -0.0570 ca         1 NU7      -0.122500
     32 C32          3.8140     4.9840     0.5650 ca         1 NU7      -0.090000
     33 C33          3.2910     6.2160     0.1330 ca         1 NU7      -0.114000
     34 C34          2.3710     6.2610    -0.9240 ca         1 NU7      -0.100000
     35 C35          1.9730     5.0710    -1.5520 ca         1 NU7      -0.114000
     36 C36          2.4950     3.8380    -1.1240 ca         1 NU7      -0.090000
     37 H1           5.9570    -3.1880     1.9050 h1         1 NU7       0.029700
     38 H1A          5.3210    -4.7870     2.3500 h1         1 NU7       0.029700
     39 H1B          6.6160    -4.6530     1.1440 h1         1 NU7       0.029700
     40 H11         -3.9260     1.4940     0.9820 ha         1 NU7       0.138000
     41 H12         -1.7640     2.6250     0.6080 ha         1 NU7       0.125000
     42 H13          0.2110     1.3690    -0.1310 ha         1 NU7       0.127000
     43 H15         -2.1300    -2.2830    -0.1510 ha         1 NU7       0.153000
     44 HN18         1.5290     0.2930    -0.7150 hn         1 NU7       0.341500
     45 H19          2.6920    -2.3310    -1.5540 h1         1 NU7       0.063200
     46 H19A         3.2380    -0.7460    -2.0990 h1         1 NU7       0.063200
     47 H21          5.5660    -1.3600    -1.4910 hc         1 NU7       0.050700
     48 H21A         6.0500    -1.6470     0.1650 hc         1 NU7       0.050700
     49 H22          6.1470    -3.7580    -1.0870 h1         1 NU7       0.061700
     50 H22A         4.4830    -3.5870    -1.6260 h1         1 NU7       0.061700
     51 H24          2.5960    -3.7850     0.1250 h1         1 NU7       0.061700
     52 H24A         3.0320    -4.1070     1.7970 h1         1 NU7       0.061700
     53 H25          4.0550    -1.8820     2.0390 hc         1 NU7       0.050700
     54 H25A         2.4070    -1.7140     1.4930 hc         1 NU7       0.050700
     55 H29          5.3450     3.0460     2.0460 h4         1 NU7       0.164000
     56 H32          4.5240     4.9840     1.3870 ha         1 NU7       0.117000
     57 H33          3.6010     7.1370     0.6220 ha         1 NU7       0.115500
     58 H34          1.9670     7.2150    -1.2560 ha         1 NU7       0.115000
     59 H35          1.2600     5.1030    -2.3730 ha         1 NU7       0.115500
     60 H36          2.1700     2.9320    -1.6300 ha         1 NU7       0.117000
     61 C02         -7.9740    -1.3770     1.5550 c3         1 NU7       0.316700
@<TRIPOS>BOND
     1     1     2 1   
     2     1    37 1   
     3     1    38 1   
     4     1    39 1   
     5     2    23 1   
     6     2    24 1   
     7     3    61 1   
     8     4    61 1   
     9     5    61 1   
    10     6     7 2   
    11     6    10 1   
    12     6    61 1   
    13     7     8 1   
    14     8     9 2   
    15     8    11 1   
    16     9    10 1   
    17    11    12 ar  
    18    11    16 ar  
    19    12    13 ar  
    20    12    40 1   
    21    13    14 ar  
    22    13    41 1   
    23    14    15 ar  
    24    14    42 1   
    25    15    16 ar  
    26    15    17 1   
    27    16    43 1   
    28    17    18 2   
    29    17    19 1   
    30    19    20 1   
    31    19    44 1   
    32    20    21 1   
    33    20    45 1   
    34    20    46 1   
    35    21    22 1   
    36    21    25 1   
    37    21    26 1   
    38    22    23 1   
    39    22    47 1   
    40    22    48 1   
    41    23    49 1   
    42    23    50 1   
    43    24    25 1   
    44    24    51 1   
    45    24    52 1   
    46    25    53 1   
    47    25    54 1   
    48    26    27 2   
    49    26    30 1   
    50    27    28 1   
    51    28    29 2   
    52    28    31 1   
    53    29    30 1   
    54    29    55 1   
    55    31    32 ar  
    56    31    36 ar  
    57    32    33 ar  
    58    32    56 1   
    59    33    34 ar  
    60    33    57 1   
    61    34    35 ar  
    62    34    58 1   
    63    35    36 ar  
    64    35    59 1   
    65    36    60 1   
@<TRIPOS>SUBSTRUCTURE
     1 NU7         1 TEMP              0 ****  ****    0 ROOT
