@<TRIPOS>MOLECULE
NU8
   48    51     1     0     0
SMALL
bcc


@<TRIPOS>ATOM
      1 N1          -2.8190    -1.6530     2.0110 nb         1 NU8      -0.728000
      2 N3          -1.5670    -0.0340     0.9140 n          1 NU8      -0.479300
      3 C4          -1.8100    -1.3730     1.2100 ca         1 NU8       0.652200
      4 C5          -0.3300     0.4710     0.5820 c          1 NU8       0.839500
      5 C6          -0.9980    -2.3820     0.6940 ca         1 NU8      -0.455800
      6 C7           4.5130     0.7670    -0.4780 ca         1 NU8       0.652600
      7 C8           4.2260     0.2060     0.7950 ca         1 NU8       0.013800
      8 C10          1.9830    -0.0290     0.0150 ca         1 NU8      -0.100700
      9 C13         -3.5730     2.7820    -2.6720 ca         1 NU8       0.205900
     10 C15         -2.8110     2.9780    -0.4480 ca         1 NU8       0.220900
     11 C17         -3.4390     0.8800    -1.2960 ca         1 NU8       0.220900
     12 C20          4.9950    -0.4540     2.9230 c3         1 NU8       0.119700
     13 C1          -1.2000    -3.6990     1.0620 ca         1 NU8       0.046000
     14 C11          2.3570     0.5270    -1.1830 ca         1 NU8       0.432200
     15 C12         -2.6370     0.9540     1.0860 c3         1 NU8       0.176300
     16 C14         -3.1070     3.5880    -1.6530 ca         1 NU8      -0.242000
     17 C16         -2.9610     1.6180    -0.2210 ca         1 NU8      -0.230300
     18 C18         -3.7510     1.4200    -2.5260 ca         1 NU8      -0.242000
     19 C19          6.1040     1.6830    -1.9530 c3         1 NU8       0.132700
     20 C2          -2.2530    -3.9770     1.9140 ca         1 NU8      -0.294300
     21 C3          -3.0420    -2.9190     2.3400 ca         1 NU8       0.500200
     22 C9           2.9320    -0.1980     1.0280 ca         1 NU8      -0.134000
     23 F2          -2.3700     3.7500     0.5450 f          1 NU8      -0.122900
     24 F3          -3.6090    -0.4340    -1.1200 f          1 NU8      -0.122900
     25 N2           3.6120     0.9150    -1.4130 nb         1 NU8      -0.732000
     26 N4           0.6460    -0.4630     0.2380 n          1 NU8      -0.452400
     27 O1          -0.0890     1.6520     0.6060 o          1 NU8      -0.573500
     28 O4           5.7700     1.1420    -0.6810 os         1 NU8      -0.414100
     29 O5           5.2490     0.1160     1.6510 os         1 NU8      -0.287900
     30 S1           0.1980    -1.9220    -0.4820 sy         1 NU8       1.349900
     31 H1           4.2710     0.1340     3.4910 h1         1 NU8       0.044700
     32 H2           4.6320    -1.4810     2.8390 h1         1 NU8       0.044700
     33 H3           5.9430    -0.4570     3.4540 h1         1 NU8       0.044700
     34 H4          -0.5620    -4.4870     0.6840 ha         1 NU8       0.161000
     35 H5           1.6420     0.6710    -1.9850 h4         1 NU8       0.038100
     36 H6          -3.5030     0.4240     1.4720 h1         1 NU8       0.090700
     37 H7          -2.3550     1.6810     1.8430 h1         1 NU8       0.090700
     38 H8          -2.9770     4.6530    -1.7880 ha         1 NU8       0.176000
     39 H9          -4.1220     0.8040    -3.3350 ha         1 NU8       0.176000
     40 H10          5.9340     0.9620    -2.7520 h1         1 NU8       0.049033
     41 H11          5.5360     2.5880    -2.1700 h1         1 NU8       0.049033
     42 H12          7.1630     1.9240    -1.9020 h1         1 NU8       0.049033
     43 H13         -2.4660    -4.9870     2.2330 ha         1 NU8       0.155000
     44 H14         -3.8910    -3.0970     2.9880 h4         1 NU8       0.029100
     45 H15          2.6270    -0.6360     1.9680 ha         1 NU8       0.154000
     46 F1          -3.8660     3.3420    -3.8470 f          1 NU8      -0.126900
     47 O2          -0.4470    -1.6420    -1.7480 o          1 NU8      -0.588300
     48 O3           1.3440    -2.8010    -0.4410 o          1 NU8      -0.588300
@<TRIPOS>BOND
     1     1     3 ar  
     2     1    21 ar  
     3     2     3 1   
     4     2     4 1   
     5     2    15 1   
     6     3     5 ar  
     7     4    26 1   
     8     4    27 2   
     9     5    13 ar  
    10     5    30 1   
    11     6     7 ar  
    12     6    25 ar  
    13     6    28 1   
    14     7    22 ar  
    15     7    29 1   
    16     8    14 ar  
    17     8    22 ar  
    18     8    26 1   
    19     9    16 ar  
    20     9    18 ar  
    21     9    46 1   
    22    10    16 ar  
    23    10    17 ar  
    24    10    23 1   
    25    11    17 ar  
    26    11    18 ar  
    27    11    24 1   
    28    12    29 1   
    29    12    31 1   
    30    12    32 1   
    31    12    33 1   
    32    13    20 ar  
    33    13    34 1   
    34    14    25 ar  
    35    14    35 1   
    36    15    17 1   
    37    15    36 1   
    38    15    37 1   
    39    16    38 1   
    40    18    39 1   
    41    19    28 1   
    42    19    40 1   
    43    19    41 1   
    44    19    42 1   
    45    20    21 ar  
    46    20    43 1   
    47    21    44 1   
    48    22    45 1   
    49    26    30 1   
    50    30    47 2   
    51    30    48 2   
@<TRIPOS>SUBSTRUCTURE
     1 NU8         1 TEMP              0 ****  ****    0 ROOT
