@<TRIPOS>MOLECULE
NU8
   48    51     1     0     0
SMALL
No Charge or Current Charge


@<TRIPOS>ATOM
      1 N1          -2.9700    -1.6070     2.0290 nb         1 NU8      -0.728000
      2 N3          -1.6790    -0.0500     0.7940 n          1 NU8      -0.412300
      3 C4          -1.9120    -1.4010     1.2170 ca         1 NU8       0.586900
      4 C5          -0.3860     0.4420     0.5090 c          1 NU8       0.630000
      5 C6          -1.0150    -2.4230     0.9520 ca         1 NU8      -0.390500
      6 C7           4.5910     0.8870    -0.4600 ca         1 NU8       0.587300
      7 C8           4.3680     0.0780     0.6910 ca         1 NU8       0.079100
      8 C10          2.0300    -0.0040     0.0610 ca         1 NU8      -0.128000
      9 C13         -3.6690     2.8570    -2.9130 ca         1 NU8       0.241000
     10 C15         -2.9560     3.0280    -0.6050 ca         1 NU8       0.256000
     11 C17         -3.5350     0.8680    -1.5390 ca         1 NU8       0.256000
     12 C20          5.2760    -1.0690     2.6930 c3         1 NU8       0.142900
     13 C1          -1.2000    -3.7120     1.4770 ca         1 NU8       0.064000
     14 C11          2.3490     0.8080    -1.0500 ca         1 NU8       0.366900
     15 C12         -2.7780     0.9600     0.8950 c3         1 NU8       0.176300
     16 C14         -3.2410     3.6370    -1.8340 ca         1 NU8      -0.224000
     17 C16         -3.0920     1.6340    -0.4420 ca         1 NU8      -0.230300
     18 C18         -3.8200     1.4740    -2.7690 ca         1 NU8      -0.224000
     19 C19          6.1780     2.1500    -1.8580 c3         1 NU8       0.155900
     20 C2          -2.3150    -3.9160     2.2950 ca         1 NU8      -0.211000
     21 C3          -3.1730    -2.8390     2.5440 ca         1 NU8       0.434900
     22 C9           3.0550    -0.3730     0.9510 ca         1 NU8      -0.116000
     23 F2          -2.5550     3.8050     0.4260 f          1 NU8      -0.158000
     24 F3          -3.6970    -0.4690    -1.4170 f          1 NU8      -0.158000
     25 N2           3.6000     1.2450    -1.3140 nb         1 NU8      -0.732000
     26 N4           0.6720    -0.4410     0.2930 n          1 NU8      -0.292800
     27 O1          -0.1750     1.6460     0.4720 o          1 NU8      -0.498000
     28 O4           5.8770     1.3270    -0.7140 os         1 NU8      -0.437300
     29 O5           5.4330    -0.2480     1.5220 os         1 NU8      -0.311100
     30 S1           0.3010    -2.0570    -0.1300 sy         1 NU8       1.208300
     31 H1           4.5820    -0.6040     3.4050 h1         1 NU8       0.044700
     32 H2           4.8940    -2.0620     2.4250 h1         1 NU8       0.044700
     33 H3           6.2410    -1.2010     3.1970 h1         1 NU8       0.044700
     34 H4          -0.5130    -4.5300     1.2580 ha         1 NU8       0.143000
     35 H5           1.5760     1.1110    -1.7550 h4         1 NU8       0.038100
     36 H6          -3.7140     0.5130     1.2490 h1         1 NU8       0.090700
     37 H7          -2.4980     1.7060     1.6510 h1         1 NU8       0.090700
     38 H8          -3.1310     4.7110    -1.9490 ha         1 NU8       0.158000
     39 H9          -4.1580     0.8720    -3.6070 ha         1 NU8       0.158000
     40 H10          5.9260     1.6310    -2.7920 h1         1 NU8       0.049033
     41 H11          5.6180     3.0930    -1.8210 h1         1 NU8       0.049033
     42 H12          7.2480     2.3920    -1.8830 h1         1 NU8       0.049033
     43 H13         -2.5180    -4.8890     2.7320 ha         1 NU8       0.137000
     44 H14         -4.0470    -2.9620     3.1820 h4         1 NU8       0.029100
     45 H15          2.8210    -0.9900     1.8150 ha         1 NU8       0.136000
     46 F1          -3.9450     3.4420    -4.0980 f          1 NU8      -0.162000
     47 O2          -0.2580    -2.0320    -1.4870 o          1 NU8      -0.517500
     48 O3           1.4360    -2.9310     0.1920 o          1 NU8      -0.517500
@<TRIPOS>BOND
     1     1     3 ar  
     2     1    21 ar  
     3     2     3 1   
     4     2     4 1   
     5     2    15 1   
     6     3     5 ar  
     7     4    26 1   
     8     4    27 2   
     9     5    13 ar  
    10     5    30 1   
    11     6     7 ar  
    12     6    25 ar  
    13     6    28 1   
    14     7    22 ar  
    15     7    29 1   
    16     8    14 ar  
    17     8    22 ar  
    18     8    26 1   
    19     9    16 ar  
    20     9    18 ar  
    21     9    46 1   
    22    10    16 ar  
    23    10    17 ar  
    24    10    23 1   
    25    11    17 ar  
    26    11    18 ar  
    27    11    24 1   
    28    12    29 1   
    29    12    31 1   
    30    12    32 1   
    31    12    33 1   
    32    13    20 ar  
    33    13    34 1   
    34    14    25 ar  
    35    14    35 1   
    36    15    17 1   
    37    15    36 1   
    38    15    37 1   
    39    16    38 1   
    40    18    39 1   
    41    19    28 1   
    42    19    40 1   
    43    19    41 1   
    44    19    42 1   
    45    20    21 ar  
    46    20    43 1   
    47    21    44 1   
    48    22    45 1   
    49    26    30 1   
    50    30    47 2   
    51    30    48 2   
@<TRIPOS>SUBSTRUCTURE
     1 NU8         1 TEMP              0 ****  ****    0 ROOT
