@<TRIPOS>MOLECULE
NU9
   57    61     1     0     0
SMALL
abcg2


@<TRIPOS>ATOM
      1 F01         -8.1410    -0.1540    -1.3690 f          1 NU9      -0.084000
      2 C02         -7.6920    -0.0660    -0.1200 c3         1 NU9       0.316700
      3 F03         -7.8130     1.1900     0.2810 f          1 NU9      -0.084000
      4 F04         -8.4460    -0.8420     0.6490 f          1 NU9      -0.084000
      5 C05         -6.2510    -0.4860    -0.0510 cc         1 NU9       0.358300
      6 N06         -5.2260     0.2690    -0.1690 nd         1 NU9      -0.658000
      7 C07         -4.1990    -0.6300    -0.0590 cd         1 NU9       0.616500
      8 N08         -4.6070    -1.8530     0.1150 nc         1 NU9      -0.344300
      9 O09         -5.9650    -1.7600     0.1210 os         1 NU9      -0.047700
     10 C10         -2.7910    -0.2470    -0.1230 ca         1 NU9      -0.165500
     11 C11         -2.4500     1.0750    -0.4030 ca         1 NU9      -0.044000
     12 C12         -1.1170     1.4440    -0.4690 ca         1 NU9      -0.129000
     13 C13         -0.1220     0.5080    -0.2360 ca         1 NU9      -0.064000
     14 C14         -0.4570    -0.8130     0.0570 ca         1 NU9      -0.165600
     15 C15         -1.7920    -1.1920     0.0920 ca         1 NU9      -0.018000
     16 C16          0.5940    -1.8550     0.2800 c          1 NU9       0.619700
     17 O17          0.4280    -3.0100    -0.0860 o          1 NU9      -0.598100
     18 N18          1.6980    -1.4120     0.9050 ns         1 NU9      -0.494900
     19 C19          2.9230    -2.1540     1.0420 c3         1 NU9       0.109000
     20 C20          4.0350    -1.6760     0.0700 c6         1 NU9      -0.100300
     21 C21          5.3130    -2.4900     0.3320 c6         1 NU9      -0.104400
     22 C22          5.1920    -3.9240    -0.1660 c6         1 NU9       0.151600
     23 O23          4.8450    -3.9810    -1.5300 os         1 NU9      -0.446000
     24 C24          3.6110    -3.3440    -1.7840 c6         1 NU9       0.151600
     25 C25          3.6380    -1.8740    -1.4000 c6         1 NU9      -0.104400
     26 C26          4.2680    -0.2130     0.3330 cc         1 NU9       0.441700
     27 N27          3.5630     0.7390    -0.1850 nd         1 NU9      -0.660000
     28 C28          3.9230     1.9750     0.2840 cd         1 NU9       0.345500
     29 C29          4.9440     1.9530     1.1880 cc         1 NU9      -0.264000
     30 S30          5.4580     0.3470     1.4600 ss         1 NU9      -0.019400
     31 C31          3.2060     3.1620    -0.2000 ca         1 NU9      -0.125500
     32 C32          3.3080     4.3870     0.4620 ca         1 NU9      -0.089500
     33 C33          2.6200     5.4980     0.0010 ca         1 NU9      -0.116000
     34 C34          1.8120     5.4050    -1.1250 ca         1 NU9      -0.100000
     35 C35          1.7030     4.1910    -1.7900 ca         1 NU9      -0.116000
     36 C36          2.3960     3.0790    -1.3340 ca         1 NU9      -0.089500
     37 H11         -3.2240     1.8110    -0.5760 ha         1 NU9       0.138000
     38 H12         -0.8500     2.4660    -0.7060 ha         1 NU9       0.127000
     39 H13          0.9170     0.8050    -0.3160 ha         1 NU9       0.138000
     40 H15         -2.0500    -2.2210     0.3040 ha         1 NU9       0.150000
     41 HN18         1.7010    -0.4640     1.2440 hn         1 NU9       0.321500
     42 H19          3.2830    -2.0560     2.0680 h1         1 NU9       0.064700
     43 H19A         2.7070    -3.2080     0.8810 h1         1 NU9       0.064700
     44 H21          6.1530    -2.0100    -0.1780 hc         1 NU9       0.060200
     45 H21A         5.5530    -2.5130     1.3990 hc         1 NU9       0.060200
     46 H22          6.1540    -4.4280    -0.0570 h1         1 NU9       0.053200
     47 H22A         4.4680    -4.4860     0.4410 h1         1 NU9       0.053200
     48 H24          3.4180    -3.4400    -2.8540 h1         1 NU9       0.053200
     49 H24A         2.7950    -3.8620    -1.2630 h1         1 NU9       0.053200
     50 H25          2.6670    -1.4250    -1.6130 hc         1 NU9       0.060200
     51 H25A         4.3630    -1.3530    -2.0320 hc         1 NU9       0.060200
     52 H29          5.4240     2.7810     1.6850 h4         1 NU9       0.165000
     53 H32          3.9170     4.4740     1.3530 ha         1 NU9       0.121000
     54 H33          2.7100     6.4390     0.5290 ha         1 NU9       0.115500
     55 H34          1.2680     6.2720    -1.4790 ha         1 NU9       0.115000
     56 H35          1.0770     4.1060    -2.6690 ha         1 NU9       0.115500
     57 H36          2.3130     2.1390    -1.8630 ha         1 NU9       0.121000
@<TRIPOS>BOND
     1     1     2 1   
     2     2     3 1   
     3     2     4 1   
     4     2     5 1   
     5     5     6 2   
     6     5     9 1   
     7     6     7 1   
     8     7     8 2   
     9     7    10 1   
    10     8     9 1   
    11    10    11 ar  
    12    10    15 ar  
    13    11    12 ar  
    14    11    37 1   
    15    12    13 ar  
    16    12    38 1   
    17    13    14 ar  
    18    13    39 1   
    19    14    15 ar  
    20    14    16 1   
    21    15    40 1   
    22    16    17 2   
    23    16    18 1   
    24    18    19 1   
    25    18    41 1   
    26    19    20 1   
    27    19    42 1   
    28    19    43 1   
    29    20    21 1   
    30    20    25 1   
    31    20    26 1   
    32    21    22 1   
    33    21    44 1   
    34    21    45 1   
    35    22    23 1   
    36    22    46 1   
    37    22    47 1   
    38    23    24 1   
    39    24    25 1   
    40    24    48 1   
    41    24    49 1   
    42    25    50 1   
    43    25    51 1   
    44    26    27 2   
    45    26    30 1   
    46    27    28 1   
    47    28    29 2   
    48    28    31 1   
    49    29    30 1   
    50    29    52 1   
    51    31    32 ar  
    52    31    36 ar  
    53    32    33 ar  
    54    32    53 1   
    55    33    34 ar  
    56    33    54 1   
    57    34    35 ar  
    58    34    55 1   
    59    35    36 ar  
    60    35    56 1   
    61    36    57 1   
@<TRIPOS>SUBSTRUCTURE
     1 NU9         1 TEMP              0 ****  ****    0 ROOT
