@<TRIPOS>MOLECULE
NU9
   57    61     1     0     0
SMALL
No Charge or Current Charge


@<TRIPOS>ATOM
      1 F01         -8.6010    -0.9780    -1.2630 f          1 NU9      -0.084000
      2 C02         -8.0210    -0.2260    -0.2980 c3         1 NU9       0.316700
      3 F03         -8.1850     1.0700    -0.6540 f          1 NU9      -0.084000
      4 F04         -8.7330    -0.4180     0.8370 f          1 NU9      -0.084000
      5 C05         -6.5590    -0.5930    -0.1090 cc         1 NU9       0.358300
      6 N06         -5.4960     0.1800    -0.2540 nd         1 NU9      -0.658000
      7 C07         -4.4600    -0.6780     0.0430 cd         1 NU9       0.616500
      8 N08         -4.8420    -1.9080     0.3540 nc         1 NU9      -0.344300
      9 O09         -6.2500    -1.8670     0.2570 os         1 NU9      -0.047700
     10 C10         -3.0410    -0.2570     0.0150 ca         1 NU9      -0.165500
     11 C11         -2.6940     1.0690    -0.3250 ca         1 NU9      -0.044000
     12 C12         -1.3490     1.4670    -0.3490 ca         1 NU9      -0.129000
     13 C13         -0.3300     0.5530    -0.0380 ca         1 NU9      -0.064000
     14 C14         -0.6490    -0.7830     0.3030 ca         1 NU9      -0.165600
     15 C15         -2.0080    -1.1720     0.3280 ca         1 NU9      -0.018000
     16 C16          0.4190    -1.8020     0.6440 c          1 NU9       0.619700
     17 O17          0.1490    -2.9360     1.0160 o          1 NU9      -0.598100
     18 N18          1.7220    -1.3820     0.5210 ns         1 NU9      -0.494900
     19 C19          2.9090    -2.1940     0.7920 c3         1 NU9       0.109000
     20 C20          4.1590    -1.7060    -0.0180 c6         1 NU9      -0.100300
     21 C21          5.4170    -2.5640     0.3650 c6         1 NU9      -0.104400
     22 C22          5.3250    -4.0180    -0.1670 c6         1 NU9       0.151600
     23 O23          5.1240    -4.0050    -1.5950 os         1 NU9      -0.446000
     24 C24          3.9060    -3.3500    -2.0080 c6         1 NU9       0.151600
     25 C25          3.9340    -1.8660    -1.5660 c6         1 NU9      -0.104400
     26 C26          4.3850    -0.2270     0.3160 cc         1 NU9       0.441700
     27 N27          3.6830     0.7560    -0.2410 nd         1 NU9      -0.660000
     28 C28          4.0290     1.9880     0.2940 cd         1 NU9       0.345500
     29 C29          4.9870     1.9280     1.2780 cc         1 NU9      -0.264000
     30 S30          5.5000     0.2930     1.5630 ss         1 NU9      -0.019400
     31 C31          3.3570     3.2240    -0.1750 ca         1 NU9      -0.125500
     32 C32          3.6470     4.4780     0.4130 ca         1 NU9      -0.089500
     33 C33          2.9970     5.6450    -0.0250 ca         1 NU9      -0.116000
     34 C34          2.0460     5.5800    -1.0550 ca         1 NU9      -0.100000
     35 C35          1.7470     4.3440    -1.6480 ca         1 NU9      -0.116000
     36 C36          2.3960     3.1760    -1.2140 ca         1 NU9      -0.089500
     37 H11         -3.4630     1.7990    -0.5710 ha         1 NU9       0.138000
     38 H12         -1.0930     2.4920    -0.6090 ha         1 NU9       0.127000
     39 H13          0.6970     0.9070    -0.0610 ha         1 NU9       0.138000
     40 H15         -2.2590    -2.1980     0.5920 ha         1 NU9       0.150000
     41 HN18         1.8700    -0.4370     0.1860 hn         1 NU9       0.321500
     42 H19          3.1290    -2.1340     1.8660 h1         1 NU9       0.064700
     43 H19A         2.6900    -3.2430     0.5540 h1         1 NU9       0.064700
     44 H21          6.3240    -2.1020    -0.0490 hc         1 NU9       0.060200
     45 H21A         5.5530    -2.5930     1.4550 hc         1 NU9       0.060200
     46 H22          6.2590    -4.5540     0.0550 h1         1 NU9       0.053200
     47 H22A         4.5010    -4.5620     0.3150 h1         1 NU9       0.053200
     48 H24          3.8240    -3.4110    -3.1030 h1         1 NU9       0.053200
     49 H24A         3.0410    -3.8740    -1.5760 h1         1 NU9       0.053200
     50 H25          3.0020    -1.3790    -1.8830 hc         1 NU9       0.060200
     51 H25A         4.7400    -1.3560    -2.1100 hc         1 NU9       0.060200
     52 H29          5.4250     2.7270     1.8570 h4         1 NU9       0.165000
     53 H32          4.3750     4.5620     1.2150 ha         1 NU9       0.121000
     54 H33          3.2310     6.6020     0.4370 ha         1 NU9       0.115500
     55 H34          1.5430     6.4840    -1.3920 ha         1 NU9       0.115000
     56 H35          1.0110     4.2900    -2.4480 ha         1 NU9       0.115500
     57 H36          2.1470     2.2330    -1.6950 ha         1 NU9       0.121000
@<TRIPOS>BOND
     1     1     2 1   
     2     2     3 1   
     3     2     4 1   
     4     2     5 1   
     5     5     6 2   
     6     5     9 1   
     7     6     7 1   
     8     7     8 2   
     9     7    10 1   
    10     8     9 1   
    11    10    11 ar  
    12    10    15 ar  
    13    11    12 ar  
    14    11    37 1   
    15    12    13 ar  
    16    12    38 1   
    17    13    14 ar  
    18    13    39 1   
    19    14    15 ar  
    20    14    16 1   
    21    15    40 1   
    22    16    17 2   
    23    16    18 1   
    24    18    19 1   
    25    18    41 1   
    26    19    20 1   
    27    19    42 1   
    28    19    43 1   
    29    20    21 1   
    30    20    25 1   
    31    20    26 1   
    32    21    22 1   
    33    21    44 1   
    34    21    45 1   
    35    22    23 1   
    36    22    46 1   
    37    22    47 1   
    38    23    24 1   
    39    24    25 1   
    40    24    48 1   
    41    24    49 1   
    42    25    50 1   
    43    25    51 1   
    44    26    27 2   
    45    26    30 1   
    46    27    28 1   
    47    28    29 2   
    48    28    31 1   
    49    29    30 1   
    50    29    52 1   
    51    31    32 ar  
    52    31    36 ar  
    53    32    33 ar  
    54    32    53 1   
    55    33    34 ar  
    56    33    54 1   
    57    34    35 ar  
    58    34    55 1   
    59    35    36 ar  
    60    35    56 1   
    61    36    57 1   
@<TRIPOS>SUBSTRUCTURE
     1 NU9         1 TEMP              0 ****  ****    0 ROOT
