@<TRIPOS>MOLECULE
NUA
   29    30     1     0     0
SMALL
abcg2


@<TRIPOS>ATOM
      1 N1          35.3060   -48.0660    16.2650 na         1 NUA       0.117800
      2 N3          34.2530   -48.1550    15.4380 nc         1 NUA      -0.512800
      3 C4          35.2850   -46.1640    15.1740 cd         1 NUA      -0.069400
      4 C5          36.5660   -44.0740    15.0140 c          1 NUA       0.610100
      5 C6          36.6060   -42.7430    14.3090 cy         1 NUA      -0.173700
      6 C7          36.5690   -41.4690    15.2010 cy         1 NUA      -0.072900
      7 C8          37.6360   -40.8340    14.2770 cy         1 NUA      -0.090400
      8 C10         34.2310   -47.0050    14.7650 cd         1 NUA       0.207900
      9 C1          34.6740   -49.0730    18.4380 c3         1 NUA      -0.112100
     10 C2          35.5880   -49.1290    17.2200 c3         1 NUA       0.092600
     11 C3          35.9590   -46.8830    16.1480 cc         1 NUA      -0.167000
     12 C9          37.9790   -42.2560    13.7720 cy         1 NUA      -0.072900
     13 N2          35.5440   -44.8930    14.6550 ns         1 NUA      -0.372100
     14 O1          37.3950   -44.3930    15.8660 o          1 NUA      -0.603100
     15 H1          35.8450   -42.6880    13.5300 hc         1 NUA       0.057700
     16 H2          35.6060   -40.9680    15.2990 hc         1 NUA       0.061950
     17 H3          36.9720   -41.6840    16.1900 hc         1 NUA       0.061950
     18 H4          38.4340   -40.2630    14.7500 hc         1 NUA       0.052200
     19 H5          37.1800   -40.2270    13.4940 hc         1 NUA       0.052200
     20 H6          33.4780   -46.8170    14.0150 h4         1 NUA       0.035100
     21 H7          34.9240   -49.8850    19.1230 hc         1 NUA       0.049700
     22 H8          34.7930   -48.1260    18.9670 hc         1 NUA       0.049700
     23 H9          33.6300   -49.1810    18.1430 hc         1 NUA       0.049700
     24 H10         35.4780   -50.0770    16.6940 h1         1 NUA       0.062700
     25 H11         36.6320   -49.0230    17.5120 h1         1 NUA       0.062700
     26 H12         36.8230   -46.6470    16.7380 h4         1 NUA       0.179000
     27 H13         38.7910   -42.7010    14.3470 hc         1 NUA       0.061950
     28 H14         38.1670   -42.3940    12.7080 hc         1 NUA       0.061950
     29 H15         34.9040   -44.5610    13.9510 hn         1 NUA       0.320500
@<TRIPOS>BOND
     1     1     2 1   
     2     1    10 1   
     3     1    11 1   
     4     2     8 2   
     5     3     8 1   
     6     3    11 2   
     7     3    13 1   
     8     4     5 1   
     9     4    13 1   
    10     4    14 2   
    11     5     6 1   
    12     5    12 1   
    13     5    15 1   
    14     6     7 1   
    15     6    16 1   
    16     6    17 1   
    17     7    12 1   
    18     7    18 1   
    19     7    19 1   
    20     8    20 1   
    21     9    10 1   
    22     9    21 1   
    23     9    22 1   
    24     9    23 1   
    25    10    24 1   
    26    10    25 1   
    27    11    26 1   
    28    12    27 1   
    29    12    28 1   
    30    13    29 1   
@<TRIPOS>SUBSTRUCTURE
     1 NUA         1 TEMP              0 ****  ****    0 ROOT
