@<TRIPOS>MOLECULE
NUA
   29    30     1     0     0
SMALL
No Charge or Current Charge


@<TRIPOS>ATOM
      1 N1          35.2550   -48.0370    16.2020 na         1 NUA       0.117800
      2 N3          34.2530   -48.1490    15.2530 nc         1 NUA      -0.512800
      3 C4          35.3310   -46.1560    15.1390 cd         1 NUA      -0.069400
      4 C5          36.5680   -43.9670    15.0710 c          1 NUA       0.610100
      5 C6          36.4160   -42.6830    14.1400 cy         1 NUA      -0.173700
      6 C7          36.5060   -41.5740    15.2570 cy         1 NUA      -0.072900
      7 C8          37.5840   -40.9360    14.3070 cy         1 NUA      -0.090400
      8 C10         34.3190   -46.9930    14.6190 cd         1 NUA       0.207900
      9 C1          34.8290   -48.9460    18.5080 c3         1 NUA      -0.112100
     10 C2          35.5130   -49.1440    17.1410 c3         1 NUA       0.092600
     11 C3          35.9390   -46.8240    16.1610 cc         1 NUA      -0.167000
     12 C9          37.9440   -42.4030    13.8710 cy         1 NUA      -0.072900
     13 N2          35.6130   -44.8810    14.6540 ns         1 NUA      -0.372100
     14 O1          37.3150   -44.2540    16.0020 o          1 NUA      -0.603100
     15 H1          35.6690   -42.6370    13.3390 hc         1 NUA       0.057700
     16 H2          35.5990   -40.9770    15.4040 hc         1 NUA       0.061950
     17 H3          36.9010   -41.8370    16.2460 hc         1 NUA       0.061950
     18 H4          38.3840   -40.3750    14.8010 hc         1 NUA       0.052200
     19 H5          37.1700   -40.3130    13.5050 hc         1 NUA       0.052200
     20 H6          33.6360   -46.7920    13.8040 h4         1 NUA       0.035100
     21 H7          35.0500   -49.7910    19.1710 hc         1 NUA       0.049700
     22 H8          35.1850   -48.0270    18.9900 hc         1 NUA       0.049700
     23 H9          33.7410   -48.8770    18.3880 hc         1 NUA       0.049700
     24 H10         35.1620   -50.0810    16.6910 h1         1 NUA       0.062700
     25 H11         36.5970   -49.2290    17.2870 h1         1 NUA       0.062700
     26 H12         36.7490   -46.5700    16.8320 h4         1 NUA       0.179000
     27 H13         38.6990   -42.8730    14.5120 hc         1 NUA       0.061950
     28 H14         38.2670   -42.5160    12.8300 hc         1 NUA       0.061950
     29 H15         35.0550   -44.5370    13.8800 hn         1 NUA       0.320500
@<TRIPOS>BOND
     1     1     2 1   
     2     1    10 1   
     3     1    11 1   
     4     2     8 2   
     5     3     8 1   
     6     3    11 2   
     7     3    13 1   
     8     4     5 1   
     9     4    13 1   
    10     4    14 2   
    11     5     6 1   
    12     5    12 1   
    13     5    15 1   
    14     6     7 1   
    15     6    16 1   
    16     6    17 1   
    17     7    12 1   
    18     7    18 1   
    19     7    19 1   
    20     8    20 1   
    21     9    10 1   
    22     9    21 1   
    23     9    22 1   
    24     9    23 1   
    25    10    24 1   
    26    10    25 1   
    27    11    26 1   
    28    12    27 1   
    29    12    28 1   
    30    13    29 1   
@<TRIPOS>SUBSTRUCTURE
     1 NUA         1 TEMP              0 ****  ****    0 ROOT
