@<TRIPOS>MOLECULE
NUB
   48    51     1     0     0
SMALL
No Charge or Current Charge


@<TRIPOS>ATOM
      1 C20          2.2170     1.4320     0.8720 ca         1 NUB       0.070400
      2 C21          3.3540     1.8480     1.5820 ca         1 NUB      -0.050000
      3 C01         -4.1000     0.7680    -2.5140 c3         1 NUB      -0.032900
      4 C05         -3.2810     1.0940    -1.2840 cc         1 NUB      -0.204400
      5 C06         -1.9100     0.9230    -1.2310 cd         1 NUB      -0.088000
      6 C08         -1.1990     1.2580    -0.0190 cd         1 NUB      -0.240600
      7 C09         -1.9070     1.8010     1.0390 cc         1 NUB       0.010600
      8 N11         -3.2900     1.9770     1.0010 n          1 NUB      -0.265000
      9 C12         -4.0050     2.5370     2.1730 c3         1 NUB       0.075300
     10 C16         -4.0550     1.6330    -0.1330 c          1 NUB       0.547200
     11 O17         -5.2730     1.7820    -0.1570 o          1 NUB      -0.551000
     12 C18          0.2410     1.1170     0.1440 cd         1 NUB       0.493100
     13 N19          0.8970     1.7080     1.1650 nc         1 NUB      -0.578100
     14 C23          4.6270     1.4830     1.0940 ca         1 NUB      -0.134000
     15 C25          4.7430     0.7180    -0.0890 ca         1 NUB      -0.095000
     16 C27          3.5870     0.3080    -0.7830 ca         1 NUB      -0.115000
     17 C29          2.3360     0.6810    -0.2630 ca         1 NUB      -0.083200
     18 N30          1.0810     0.3830    -0.7340 na         1 NUB      -0.172600
     19 C31          0.8070    -0.9170    -1.3980 c3         1 NUB       0.082600
     20 C34          1.2310    -2.1890    -0.5980 c6         1 NUB      -0.082700
     21 C36          0.9760    -3.4810    -1.4230 c6         1 NUB      -0.110900
     22 C39          1.3290    -4.7410    -0.5970 c6         1 NUB       0.155600
     23 O42          0.5890    -4.7400     0.6420 os         1 NUB      -0.447000
     24 C43          0.8840    -3.6140     1.4960 c6         1 NUB       0.155600
     25 C46          0.5120    -2.2940     0.7790 c6         1 NUB      -0.110900
     26 H1           3.2540     2.4450     2.4840 ha         1 NUB       0.128000
     27 H2          -4.6120     1.6610    -2.8950 hc         1 NUB       0.047700
     28 H3          -3.4730     0.3760    -3.3240 hc         1 NUB       0.047700
     29 H4          -4.8610     0.0100    -2.2900 hc         1 NUB       0.047700
     30 H6          -1.4760     2.1140     1.9860 h4         1 NUB       0.216000
     31 H7          -4.5300     3.4550     1.8810 h1         1 NUB       0.057700
     32 H8          -4.7360     1.8070     2.5420 h1         1 NUB       0.057700
     33 H9          -3.3050     2.7750     2.9830 h1         1 NUB       0.057700
     34 H10          5.5210     1.7970     1.6270 ha         1 NUB       0.114000
     35 H11          5.7270     0.4420    -0.4640 ha         1 NUB       0.112000
     36 H12          3.6660    -0.2840    -1.6920 ha         1 NUB       0.116000
     37 H13         -0.2610    -1.0250    -1.5960 h1         1 NUB       0.063200
     38 H14          1.3230    -0.9200    -2.3660 h1         1 NUB       0.063200
     39 H15          2.3130    -2.1130    -0.4190 hc         1 NUB       0.060700
     40 H16         -0.0780    -3.5330    -1.7290 hc         1 NUB       0.053200
     41 H17          1.5710    -3.4670    -2.3460 hc         1 NUB       0.053200
     42 H18          1.0750    -5.6470    -1.1660 h1         1 NUB       0.045700
     43 H19          2.4070    -4.7660    -0.3780 h1         1 NUB       0.045700
     44 H20          0.3100    -3.7100     2.4280 h1         1 NUB       0.045700
     45 H21          1.9540    -3.6210     1.7510 h1         1 NUB       0.045700
     46 H22          0.7870    -1.4470     1.4210 hc         1 NUB       0.053200
     47 H23         -0.5770    -2.2460     0.6430 hc         1 NUB       0.053200
     48 H5          -1.3910     0.5860    -2.1220 ha         1 NUB       0.189000
@<TRIPOS>BOND
     1     1     2 ar  
     2     1    13 1   
     3     1    17 ar  
     4     2    14 ar  
     5     2    26 1   
     6     3     4 1   
     7     3    27 1   
     8     3    28 1   
     9     3    29 1   
    10     4     5 2   
    11     4    10 1   
    12     5     6 1   
    13     5    48 1   
    14     6     7 2   
    15     6    12 1   
    16     7     8 1   
    17     7    30 1   
    18     8     9 1   
    19     8    10 1   
    20     9    31 1   
    21     9    32 1   
    22     9    33 1   
    23    10    11 2   
    24    12    13 2   
    25    12    18 1   
    26    14    15 ar  
    27    14    34 1   
    28    15    16 ar  
    29    15    35 1   
    30    16    17 ar  
    31    16    36 1   
    32    17    18 1   
    33    18    19 1   
    34    19    20 1   
    35    19    37 1   
    36    19    38 1   
    37    20    21 1   
    38    20    25 1   
    39    20    39 1   
    40    21    22 1   
    41    21    40 1   
    42    21    41 1   
    43    22    23 1   
    44    22    42 1   
    45    22    43 1   
    46    23    24 1   
    47    24    25 1   
    48    24    44 1   
    49    24    45 1   
    50    25    46 1   
    51    25    47 1   
@<TRIPOS>SUBSTRUCTURE
     1 NUB         1 TEMP              0 ****  ****    0 ROOT
