@<TRIPOS>MOLECULE
NUB
   48    51     1     0     0
SMALL
bcc


@<TRIPOS>ATOM
      1 C20          2.4530     1.8460     0.5130 ca         1 NUB       0.070400
      2 C21          3.5940     2.4710     1.0140 ca         1 NUB      -0.068000
      3 C01         -3.8430     1.0040    -2.6110 c3         1 NUB      -0.032900
      4 C05         -3.0610     1.0930    -1.3410 cc         1 NUB      -0.204400
      5 C06         -1.7030     1.1180    -1.3120 cd         1 NUB      -0.038000
      6 C08         -0.9880     1.2110    -0.0890 cd         1 NUB      -0.240600
      7 C09         -1.7120     1.2980     1.0600 cc         1 NUB       0.060600
      8 N11         -3.0620     1.2740     1.0560 n          1 NUB      -0.332000
      9 C12         -3.7920     1.3560     2.3140 c3         1 NUB       0.075300
     10 C16         -3.8130     1.1640    -0.1080 c          1 NUB       0.689700
     11 O17         -5.0380     1.1400    -0.0460 o          1 NUB      -0.626500
     12 C18          0.4710     1.2600    -0.0110 cd         1 NUB       0.493100
     13 N19          1.1270     2.1550     0.6820 nc         1 NUB      -0.578100
     14 C23          4.8260     1.9440     0.6690 ca         1 NUB      -0.152000
     15 C25          4.9310     0.8150    -0.1590 ca         1 NUB      -0.113000
     16 C27          3.8100     0.1840    -0.6690 ca         1 NUB      -0.133000
     17 C29          2.5770     0.7240    -0.3190 ca         1 NUB      -0.083200
     18 N30          1.2910     0.3680    -0.6470 na         1 NUB      -0.143300
     19 C31          0.9420    -0.8700    -1.3180 c3         1 NUB       0.053300
     20 C34          1.0300    -2.0920    -0.4080 c6         1 NUB      -0.082700
     21 C36          0.7210    -3.3580    -1.2060 c6         1 NUB      -0.110900
     22 C39          0.7180    -4.5750    -0.2940 c6         1 NUB       0.132400
     23 O42         -0.1840    -4.4290     0.7800 os         1 NUB      -0.400600
     24 C43          0.1230    -3.3090     1.5810 c6         1 NUB       0.132400
     25 C46          0.0880    -2.0110     0.7900 c6         1 NUB      -0.110900
     26 H1           3.5150     3.3410     1.6540 ha         1 NUB       0.146000
     27 H2          -4.5200     1.8520    -2.7230 hc         1 NUB       0.047700
     28 H3          -3.1800     0.9820    -3.4750 hc         1 NUB       0.047700
     29 H4          -4.4580     0.1020    -2.6350 hc         1 NUB       0.047700
     30 H6          -1.2360     1.3800     2.0270 h4         1 NUB       0.166000
     31 H7          -4.4260     2.2400     2.3290 h1         1 NUB       0.057700
     32 H8          -4.4140     0.4740     2.4510 h1         1 NUB       0.057700
     33 H9          -3.0810     1.4170     3.1310 h1         1 NUB       0.057700
     34 H10          5.7290     2.4080     1.0420 ha         1 NUB       0.132000
     35 H11          5.9120     0.4290    -0.4030 ha         1 NUB       0.130000
     36 H12          3.8990    -0.6850    -1.3080 ha         1 NUB       0.134000
     37 H13         -0.0630    -0.7820    -1.7280 h1         1 NUB       0.063200
     38 H14          1.6140    -0.9850    -2.1700 h1         1 NUB       0.063200
     39 H15          2.0580    -2.1730    -0.0320 hc         1 NUB       0.060700
     40 H16         -0.2560    -3.2620    -1.6910 hc         1 NUB       0.053200
     41 H17          1.4600    -3.5050    -1.9980 hc         1 NUB       0.053200
     42 H18          0.4160    -5.4680    -0.8450 h1         1 NUB       0.045700
     43 H19          1.7360    -4.7510     0.0840 h1         1 NUB       0.045700
     44 H20         -0.6080    -3.2860     2.3900 h1         1 NUB       0.045700
     45 H21          1.1170    -3.4290     2.0390 h1         1 NUB       0.045700
     46 H22          0.3660    -1.1940     1.4610 hc         1 NUB       0.053200
     47 H23         -0.9330    -1.8120     0.4480 hc         1 NUB       0.053200
     48 H5          -1.1550     1.0940    -2.2470 ha         1 NUB       0.139000
@<TRIPOS>BOND
     1     1     2 ar  
     2     1    13 1   
     3     1    17 ar  
     4     2    14 ar  
     5     2    26 1   
     6     3     4 1   
     7     3    27 1   
     8     3    28 1   
     9     3    29 1   
    10     4     5 2   
    11     4    10 1   
    12     5     6 1   
    13     5    48 1   
    14     6     7 2   
    15     6    12 1   
    16     7     8 1   
    17     7    30 1   
    18     8     9 1   
    19     8    10 1   
    20     9    31 1   
    21     9    32 1   
    22     9    33 1   
    23    10    11 2   
    24    12    13 2   
    25    12    18 1   
    26    14    15 ar  
    27    14    34 1   
    28    15    16 ar  
    29    15    35 1   
    30    16    17 ar  
    31    16    36 1   
    32    17    18 1   
    33    18    19 1   
    34    19    20 1   
    35    19    37 1   
    36    19    38 1   
    37    20    21 1   
    38    20    25 1   
    39    20    39 1   
    40    21    22 1   
    41    21    40 1   
    42    21    41 1   
    43    22    23 1   
    44    22    42 1   
    45    22    43 1   
    46    23    24 1   
    47    24    25 1   
    48    24    44 1   
    49    24    45 1   
    50    25    46 1   
    51    25    47 1   
@<TRIPOS>SUBSTRUCTURE
     1 NUB         1 TEMP              0 ****  ****    0 ROOT
