@<TRIPOS>MOLECULE
NUC
   54    57     1     0     0
SMALL
No Charge or Current Charge


@<TRIPOS>ATOM
      1 C4         -30.4720    28.0600    -6.5690 ca         1 NUC      -0.144800
      2 N3         -27.6670    28.9800    -0.8130 n8         1 NUC      -0.979200
      3 C2         -31.0500    25.8730    -7.7730 ce         1 NUC      -0.286200
      4 N1         -29.7150    30.2150    -5.7210 nb         1 NUC      -0.709000
      5 C7         -29.2670    30.5050    -2.2180 c          1 NUC       0.575000
      6 C6         -30.0050    29.7860    -4.4820 ca         1 NUC       0.487900
      7 O2         -29.2820    31.4040    -1.3860 o          1 NUC      -0.503000
      8 C5         -29.9510    29.3610    -6.7430 ca         1 NUC       0.386900
      9 C1         -31.3150    25.0870    -9.0200 c          1 NUC       0.611300
     10 C10        -30.9340    28.1230    -2.7620 c3         1 NUC      -0.025100
     11 C11        -30.5430    28.5150    -4.1880 ca         1 NUC      -0.156300
     12 C12        -30.7800    27.6360    -5.2590 ca         1 NUC      -0.036000
     13 C13        -31.9660    22.9580   -10.1660 c3         1 NUC       0.088300
     14 C14        -31.9700    23.0470    -7.6320 c3         1 NUC       0.178200
     15 C15        -33.1120    23.6460    -6.8430 cc         1 NUC      -0.008100
     16 C16        -34.4020    23.9890    -7.2180 cd         1 NUC      -0.107400
     17 C17        -35.0310    23.8110    -8.5760 c3         1 NUC      -0.024900
     18 C18        -35.0180    24.5780    -6.0670 ca         1 NUC      -0.118800
     19 C19        -36.2930    25.1230    -5.8580 ca         1 NUC      -0.057000
     20 C20        -36.5760    25.6430    -4.5760 ca         1 NUC      -0.132000
     21 C21        -35.5950    25.6080    -3.5540 ca         1 NUC      -0.087000
     22 C22        -34.3220    25.0500    -3.8050 ca         1 NUC      -0.108000
     23 C23        -34.0670    24.5400    -5.0840 ca         1 NUC       0.068100
     24 C3         -30.7100    27.1960    -7.7450 cf         1 NUC      -0.080200
     25 C8         -28.6450    29.0800    -1.9490 c3         1 NUC       0.090500
     26 C9         -29.7350    27.9890    -1.7930 c3         1 NUC      -0.069400
     27 N2         -29.6910    30.7320    -3.5060 ns         1 NUC      -0.340900
     28 N4         -31.7340    23.7370    -8.9270 n          1 NUC      -0.408800
     29 O1         -31.1730    25.6130   -10.1160 o          1 NUC      -0.602100
     30 O3         -32.8880    23.9670    -5.5030 os         1 NUC      -0.170200
     31 H1         -27.2210    28.0540    -0.8230 hn         1 NUC       0.403500
     32 H2         -26.8840    29.6270    -0.9740 hn         1 NUC       0.403500
     33 H4         -31.1330    25.3500    -6.8320 ha         1 NUC       0.187000
     34 H5         -29.7080    29.7320    -7.7390 h4         1 NUC       0.028100
     35 H6         -31.6280    28.8730    -2.3620 hc         1 NUC       0.059700
     36 H7         -31.4950    27.1790    -2.7570 hc         1 NUC       0.059700
     37 H8         -31.2140    26.6580    -5.0710 ha         1 NUC       0.123000
     38 H9         -32.3660    21.9620    -9.9390 h1         1 NUC       0.044033
     39 H10        -32.6860    23.4840   -10.8060 h1         1 NUC       0.044033
     40 H11        -31.0200    22.8430   -10.7110 h1         1 NUC       0.044033
     41 H12        -32.1920    21.9860    -7.8060 h1         1 NUC       0.066700
     42 H13        -31.0500    23.0830    -7.0350 h1         1 NUC       0.066700
     43 H14        -34.7720    22.8360    -9.0050 hc         1 NUC       0.044700
     44 H15        -36.1250    23.8660    -8.5240 hc         1 NUC       0.044700
     45 H16        -34.6890    24.5870    -9.2700 hc         1 NUC       0.044700
     46 H17        -37.0360    25.1490    -6.6510 ha         1 NUC       0.119000
     47 H18        -37.5530    26.0750    -4.3730 ha         1 NUC       0.116000
     48 H19        -35.8240    26.0120    -2.5700 ha         1 NUC       0.117000
     49 H20        -33.5600    25.0170    -3.0300 ha         1 NUC       0.131000
     50 H21        -30.6120    27.7090    -8.7060 ha         1 NUC       0.200000
     51 H22        -28.0740    28.8360    -2.8560 h1         1 NUC       0.033700
     52 H23        -30.1210    27.9980    -0.7660 hc         1 NUC       0.057700
     53 H24        -29.2690    27.0070    -1.9430 hc         1 NUC       0.057700
     54 H25        -29.9300    31.6850    -3.7400 hn         1 NUC       0.172000
@<TRIPOS>BOND
     1     1     8 ar  
     2     1    12 ar  
     3     1    24 1   
     4     2    25 1   
     5     2    31 1   
     6     2    32 1   
     7     3     9 1   
     8     3    24 2   
     9     3    33 1   
    10     4     6 ar  
    11     4     8 ar  
    12     5     7 2   
    13     5    25 1   
    14     5    27 1   
    15     6    11 ar  
    16     6    27 1   
    17     8    34 1   
    18     9    28 1   
    19     9    29 2   
    20    10    11 1   
    21    10    26 1   
    22    10    35 1   
    23    10    36 1   
    24    11    12 ar  
    25    12    37 1   
    26    13    28 1   
    27    13    38 1   
    28    13    39 1   
    29    13    40 1   
    30    14    15 1   
    31    14    28 1   
    32    14    41 1   
    33    14    42 1   
    34    15    16 2   
    35    15    30 1   
    36    16    17 1   
    37    16    18 1   
    38    17    43 1   
    39    17    44 1   
    40    17    45 1   
    41    18    19 ar  
    42    18    23 ar  
    43    19    20 ar  
    44    19    46 1   
    45    20    21 ar  
    46    20    47 1   
    47    21    22 ar  
    48    21    48 1   
    49    22    23 ar  
    50    22    49 1   
    51    23    30 1   
    52    24    50 1   
    53    25    26 1   
    54    25    51 1   
    55    26    52 1   
    56    26    53 1   
    57    27    54 1   
@<TRIPOS>SUBSTRUCTURE
     1 NUC         1 TEMP              0 ****  ****    0 ROOT
