@<TRIPOS>MOLECULE
NUC
   54    57     1     0     0
SMALL
bcc


@<TRIPOS>ATOM
      1 C4         -30.0010    28.4840    -6.3330 ca         1 NUC      -0.210100
      2 N3         -27.0830    28.5170    -0.6900 n8         1 NUC      -0.868800
      3 C2         -31.1900    26.6590    -7.5520 ce         1 NUC      -0.236200
      4 N1         -28.7010    30.3110    -5.4820 nb         1 NUC      -0.709000
      5 C7         -28.0060    30.3210    -2.0270 c          1 NUC       0.717500
      6 C6         -29.0340    29.9590    -4.2520 ca         1 NUC       0.553200
      7 O2         -27.5880    31.1260    -1.2220 o          1 NUC      -0.578500
      8 C5         -29.1800    29.5980    -6.4890 ca         1 NUC       0.452200
      9 C1         -31.5870    26.0820    -8.8600 c          1 NUC       0.678300
     10 C10        -30.3870    28.6950    -2.5510 c3         1 NUC      -0.025100
     11 C11        -29.9170    28.9080    -3.9580 ca         1 NUC      -0.221600
     12 C12        -30.3750    28.1620    -5.0240 ca         1 NUC      -0.054000
     13 C13        -32.6730    24.3480   -10.1340 c3         1 NUC       0.088300
     14 C14        -32.2550    23.9570    -7.7380 c3         1 NUC       0.178200
     15 C15        -33.6140    23.9260    -7.1350 cc         1 NUC      -0.008100
     16 C16        -34.5480    22.9520    -7.0420 cd         1 NUC      -0.107400
     17 C17        -34.4910    21.5490    -7.5350 c3         1 NUC      -0.024900
     18 C18        -35.6610    23.5550    -6.3540 ca         1 NUC      -0.118800
     19 C19        -36.9180    23.1120    -5.9430 ca         1 NUC      -0.075000
     20 C20        -37.7450    24.0080    -5.2870 ca         1 NUC      -0.150000
     21 C21        -37.3380    25.3250    -5.0410 ca         1 NUC      -0.105000
     22 C22        -36.0930    25.7850    -5.4430 ca         1 NUC      -0.126000
     23 C23        -35.2830    24.8730    -6.0960 ca         1 NUC       0.068100
     24 C3         -30.4410    27.7670    -7.5200 cf         1 NUC      -0.030200
     25 C8         -27.9280    28.8120    -1.8280 c3         1 NUC       0.090500
     26 C9         -29.3050    28.1790    -1.6060 c3         1 NUC      -0.069400
     27 N2         -28.5090    30.7450    -3.2310 ns         1 NUC      -0.574400
     28 N4         -32.1720    24.8600    -8.8730 n          1 NUC      -0.475800
     29 O1         -31.4110    26.7020    -9.9030 o          1 NUC      -0.602100
     30 O3         -34.0400    25.0960    -6.5710 os         1 NUC      -0.170200
     31 H1         -27.0600    27.5130    -0.5610 hn         1 NUC       0.348300
     32 H2         -26.1280    28.7900    -0.8840 hn         1 NUC       0.348300
     33 H4         -31.5320    26.2060    -6.6320 ha         1 NUC       0.137000
     34 H5         -28.8930    29.9210    -7.4850 h4         1 NUC       0.028100
     35 H6         -30.7720    29.6480    -2.1740 hc         1 NUC       0.059700
     36 H7         -31.2310    28.0040    -2.5490 hc         1 NUC       0.059700
     37 H8         -31.0610    27.3460    -4.8290 ha         1 NUC       0.141000
     38 H9         -33.3640    23.5320    -9.9350 h1         1 NUC       0.044033
     39 H10        -33.2120    25.1160   -10.6850 h1         1 NUC       0.044033
     40 H11        -31.8680    23.9690   -10.7670 h1         1 NUC       0.044033
     41 H12        -31.9970    22.9530    -8.0760 h1         1 NUC       0.066700
     42 H13        -31.5020    24.2100    -6.9920 h1         1 NUC       0.066700
     43 H14        -34.6160    20.8410    -6.7150 hc         1 NUC       0.044700
     44 H15        -35.2920    21.3560    -8.2510 hc         1 NUC       0.044700
     45 H16        -33.5460    21.3220    -8.0260 hc         1 NUC       0.044700
     46 H17        -37.2400    22.0950    -6.1280 ha         1 NUC       0.137000
     47 H18        -38.7250    23.6890    -4.9560 ha         1 NUC       0.134000
     48 H19        -38.0090    26.0000    -4.5260 ha         1 NUC       0.135000
     49 H20        -35.7740    26.8020    -5.2540 ha         1 NUC       0.149000
     50 H21        -30.1160    28.1950    -8.4630 ha         1 NUC       0.150000
     51 H22        -27.5270    28.4040    -2.7700 h1         1 NUC       0.033700
     52 H23        -29.6130    28.3610    -0.5750 hc         1 NUC       0.057700
     53 H24        -29.1910    27.0980    -1.7220 hc         1 NUC       0.057700
     54 H25        -28.3290    31.7130    -3.4640 hn         1 NUC       0.338500
@<TRIPOS>BOND
     1     1     8 ar  
     2     1    12 ar  
     3     1    24 1   
     4     2    25 1   
     5     2    31 1   
     6     2    32 1   
     7     3     9 1   
     8     3    24 2   
     9     3    33 1   
    10     4     6 ar  
    11     4     8 ar  
    12     5     7 2   
    13     5    25 1   
    14     5    27 1   
    15     6    11 ar  
    16     6    27 1   
    17     8    34 1   
    18     9    28 1   
    19     9    29 2   
    20    10    11 1   
    21    10    26 1   
    22    10    35 1   
    23    10    36 1   
    24    11    12 ar  
    25    12    37 1   
    26    13    28 1   
    27    13    38 1   
    28    13    39 1   
    29    13    40 1   
    30    14    15 1   
    31    14    28 1   
    32    14    41 1   
    33    14    42 1   
    34    15    16 2   
    35    15    30 1   
    36    16    17 1   
    37    16    18 1   
    38    17    43 1   
    39    17    44 1   
    40    17    45 1   
    41    18    19 ar  
    42    18    23 ar  
    43    19    20 ar  
    44    19    46 1   
    45    20    21 ar  
    46    20    47 1   
    47    21    22 ar  
    48    21    48 1   
    49    22    23 ar  
    50    22    49 1   
    51    23    30 1   
    52    24    50 1   
    53    25    26 1   
    54    25    51 1   
    55    26    52 1   
    56    26    53 1   
    57    27    54 1   
@<TRIPOS>SUBSTRUCTURE
     1 NUC         1 TEMP              0 ****  ****    0 ROOT
