@<TRIPOS>MOLECULE
NUD
   44    46     1     0     0
SMALL
bcc


@<TRIPOS>ATOM
      1 C1           5.9070    -1.2400     0.6570 ca         1 NUD      -0.341000
      2 C2           4.5290    -1.1030     0.8770 ca         1 NUD       0.286600
      3 C3           3.8290    -0.1220     0.1300 ca         1 NUD      -0.055600
      4 C4           4.5270     0.6620    -0.8080 ca         1 NUD      -0.015000
      5 C5           5.8720     0.5310    -1.0310 ca         1 NUD      -0.169300
      6 C6           6.5590    -0.4480    -0.2680 ca         1 NUD       0.223100
      7 O7           7.8720    -0.5590    -0.4970 oh         1 NUD      -0.482100
      8 C8           6.6080     1.3750    -2.0290 c3         1 NUD      -0.023800
      9 N9           2.4880    -0.0080     0.3990 ne         1 NUD      -0.186400
     10 N10          1.8370     0.8260    -0.2660 nf         1 NUD      -0.246400
     11 C11          0.4790     0.9070     0.0630 ca         1 NUD       0.156400
     12 C12         -0.2740     1.7820    -0.7220 ca         1 NUD      -0.136000
     13 C13         -1.6280     1.9450    -0.4980 ca         1 NUD      -0.025000
     14 C14         -2.2340     1.2230     0.5220 ca         1 NUD      -0.291500
     15 C15         -1.5010     0.3520     1.3210 ca         1 NUD      -0.025000
     16 C16         -0.1470     0.1980     1.0930 ca         1 NUD      -0.136000
     17 S17         -3.9660     1.4320     0.7880 sy         1 NUD       1.336200
     18 O18         -4.3150     0.8880     2.0840 o          1 NUD      -0.600800
     19 O19         -4.3240     2.8050     0.4690 o          1 NUD      -0.600800
     20 N20         -4.7070     0.5530    -0.4100 nu         1 NUD      -0.833800
     21 C21         -4.5380    -0.8080    -0.6280 ca         1 NUD       0.682200
     22 N22         -3.8640    -1.4880     0.2790 nb         1 NUD      -0.731000
     23 C23         -3.6940    -2.7930     0.0850 ca         1 NUD       0.451200
     24 C24         -4.1890    -3.4720    -1.0120 ca         1 NUD      -0.279300
     25 C25         -4.8980    -2.7420    -1.9600 ca         1 NUD      -0.059000
     26 C26         -5.0800    -1.3860    -1.7790 ca         1 NUD      -0.283300
     27 N41          3.8890    -1.9130     1.7490 nv         1 NUD      -0.834200
     28 H1           6.4620    -1.9850     1.2170 ha         1 NUD       0.134000
     29 H4           3.9670     1.4030    -1.3650 ha         1 NUD       0.155000
     30 HO7          8.2600    -1.2520     0.0510 ho         1 NUD       0.429000
     31 H8           7.3840     1.9800    -1.5570 hc         1 NUD       0.041700
     32 H8A          7.0960     0.7690    -2.7950 hc         1 NUD       0.041700
     33 H8B          5.9210     2.0530    -2.5330 hc         1 NUD       0.041700
     34 H12          0.2170     2.3330    -1.5130 ha         1 NUD       0.146000
     35 H13         -2.1950     2.6290    -1.1160 ha         1 NUD       0.156000
     36 H15         -1.9790    -0.2040     2.1130 ha         1 NUD       0.156000
     37 H16          0.4250    -0.4750     1.7150 ha         1 NUD       0.146000
     38 HN20        -5.0950     1.1120    -1.1600 hn         1 NUD       0.460800
     39 H23         -3.1310    -3.3160     0.8490 h4         1 NUD       0.023100
     40 H24         -4.0230    -4.5340    -1.1240 ha         1 NUD       0.147000
     41 H25         -5.3060    -3.2260    -2.8380 ha         1 NUD       0.139000
     42 H26         -5.6230    -0.7900    -2.5000 ha         1 NUD       0.146000
     43 HN41         4.4280    -2.4110     2.4360 hn         1 NUD       0.429800
     44 HN4A         2.9470    -1.6780     2.0130 hn         1 NUD       0.429800
@<TRIPOS>BOND
     1     1     2 ar  
     2     1     6 ar  
     3     1    28 1   
     4     2     3 ar  
     5     2    27 1   
     6     3     4 ar  
     7     3     9 1   
     8     4     5 ar  
     9     4    29 1   
    10     5     6 ar  
    11     5     8 1   
    12     6     7 1   
    13     7    30 1   
    14     8    31 1   
    15     8    32 1   
    16     8    33 1   
    17     9    10 2   
    18    10    11 1   
    19    11    12 ar  
    20    11    16 ar  
    21    12    13 ar  
    22    12    34 1   
    23    13    14 ar  
    24    13    35 1   
    25    14    15 ar  
    26    14    17 1   
    27    15    16 ar  
    28    15    36 1   
    29    16    37 1   
    30    17    18 2   
    31    17    19 2   
    32    17    20 1   
    33    20    21 1   
    34    20    38 1   
    35    21    22 ar  
    36    21    26 ar  
    37    22    23 ar  
    38    23    24 ar  
    39    23    39 1   
    40    24    25 ar  
    41    24    40 1   
    42    25    26 ar  
    43    25    41 1   
    44    26    42 1   
    45    27    43 1   
    46    27    44 1   
@<TRIPOS>SUBSTRUCTURE
     1 NUD         1 TEMP              0 ****  ****    0 ROOT
