@<TRIPOS>MOLECULE
NUD
   44    46     1     0     0
SMALL
No Charge or Current Charge


@<TRIPOS>ATOM
      1 C1           5.6760    -1.3760     0.3930 ca         1 NUD      -0.323000
      2 C2           4.2880    -1.2370     0.4590 ca         1 NUD       0.425000
      3 C3           3.6290    -0.2380    -0.2970 ca         1 NUD      -0.055600
      4 C4           4.3930     0.6070    -1.1250 ca         1 NUD       0.003000
      5 C5           5.7930     0.4700    -1.1960 ca         1 NUD      -0.169300
      6 C6           6.4260    -0.5280    -0.4280 ca         1 NUD       0.223100
      7 O7           7.7780    -0.6830    -0.4770 oh         1 NUD      -0.521100
      8 C8           6.6020     1.4000    -2.0970 c3         1 NUD      -0.023800
      9 N9           2.2250    -0.0770    -0.2530 ne         1 NUD      -0.186400
     10 N10          1.8030     0.8570     0.4910 nf         1 NUD      -0.246400
     11 C11          0.3980     1.0260     0.5360 ca         1 NUD       0.156400
     12 C12         -0.2460     1.8300    -0.4210 ca         1 NUD      -0.118000
     13 C13         -1.6400     2.0060    -0.3780 ca         1 NUD      -0.007000
     14 C14         -2.3980     1.3770     0.6320 ca         1 NUD      -0.291500
     15 C15         -1.7510     0.5720     1.5940 ca         1 NUD      -0.007000
     16 C16         -0.3570     0.4020     1.5440 ca         1 NUD      -0.118000
     17 S17         -4.1850     1.5840     0.6830 sy         1 NUD       1.194600
     18 O18         -4.7250     1.1950     1.9900 o          1 NUD      -0.530000
     19 O19         -4.5450     2.8490     0.0390 o          1 NUD      -0.530000
     20 N20         -4.7920     0.4660    -0.3930 nu         1 NUD      -0.889000
     21 C21         -4.4040    -0.8320    -0.5380 ca         1 NUD       0.616900
     22 N22         -4.1950    -1.5220     0.5900 nb         1 NUD      -0.731000
     23 C23         -3.8270    -2.8170     0.4770 ca         1 NUD       0.385900
     24 C24         -3.6670    -3.4610    -0.7610 ca         1 NUD      -0.196000
     25 C25         -3.9030    -2.7400    -1.9410 ca         1 NUD      -0.041000
     26 C26         -4.2850    -1.3950    -1.8180 ca         1 NUD      -0.200000
     27 N41          3.5980    -2.0930     1.2730 nv         1 NUD      -1.083000
     28 H1           6.1690    -2.1460     0.9780 ha         1 NUD       0.116000
     29 H4           3.8910     1.3730    -1.7120 ha         1 NUD       0.137000
     30 HO7          8.0170    -1.4230     0.1200 ho         1 NUD       0.468000
     31 H8           7.3330     1.9750    -1.5150 hc         1 NUD       0.041700
     32 H8A          7.1520     0.8300    -2.8560 hc         1 NUD       0.041700
     33 H8B          5.9630     2.1180    -2.6240 hc         1 NUD       0.041700
     34 H12          0.3360     2.3170    -1.1990 ha         1 NUD       0.128000
     35 H13         -2.1240     2.6280    -1.1300 ha         1 NUD       0.138000
     36 H15         -2.3230     0.0740     2.3750 ha         1 NUD       0.138000
     37 H16          0.1380    -0.2180     2.2860 ha         1 NUD       0.128000
     38 HN20        -4.8870     0.9750    -1.2550 hn         1 NUD       0.516000
     39 H23         -3.6550    -3.3560     1.4080 h4         1 NUD       0.023100
     40 H24         -3.3700    -4.5050    -0.7960 ha         1 NUD       0.129000
     41 H25         -3.7950    -3.2080    -2.9180 ha         1 NUD       0.121000
     42 H26         -4.4810    -0.8000    -2.7030 ha         1 NUD       0.128000
     43 HN41         4.1100    -2.6060     1.9860 hn         1 NUD       0.485000
     44 HN4A         2.6280    -1.8660     1.4780 hn         1 NUD       0.485000
@<TRIPOS>BOND
     1     1     2 ar  
     2     1     6 ar  
     3     1    28 1   
     4     2     3 ar  
     5     2    27 1   
     6     3     4 ar  
     7     3     9 1   
     8     4     5 ar  
     9     4    29 1   
    10     5     6 ar  
    11     5     8 1   
    12     6     7 1   
    13     7    30 1   
    14     8    31 1   
    15     8    32 1   
    16     8    33 1   
    17     9    10 2   
    18    10    11 1   
    19    11    12 ar  
    20    11    16 ar  
    21    12    13 ar  
    22    12    34 1   
    23    13    14 ar  
    24    13    35 1   
    25    14    15 ar  
    26    14    17 1   
    27    15    16 ar  
    28    15    36 1   
    29    16    37 1   
    30    17    18 2   
    31    17    19 2   
    32    17    20 1   
    33    20    21 1   
    34    20    38 1   
    35    21    22 ar  
    36    21    26 ar  
    37    22    23 ar  
    38    23    24 ar  
    39    23    39 1   
    40    24    25 ar  
    41    24    40 1   
    42    25    26 ar  
    43    25    41 1   
    44    26    42 1   
    45    27    43 1   
    46    27    44 1   
@<TRIPOS>SUBSTRUCTURE
     1 NUD         1 TEMP              0 ****  ****    0 ROOT
