@<TRIPOS>MOLECULE
NUE
   47    49     1     0     0
SMALL
abcg2


@<TRIPOS>ATOM
      1 C1          -4.3030    -3.4390    -1.4200 ca         1 NUE      -0.197000
      2 C2          -5.1020    -2.6430    -2.2370 ca         1 NUE      -0.041000
      3 C3          -3.7730    -2.8640    -0.2820 ca         1 NUE       0.385900
      4 C4          -5.3340    -1.3290    -1.8890 ca         1 NUE      -0.199000
      5 N5          -3.9890    -1.6000     0.0720 nb         1 NUE      -0.732000
      6 C6          -4.7480    -0.8570    -0.7110 ca         1 NUE       0.619900
      7 N7          -4.9610     0.4600    -0.3270 nu         1 NUE      -0.893000
      8 S8          -4.2390     1.2100     0.9650 sy         1 NUE       1.196600
      9 C9          -1.9510     1.9720    -0.2950 ca         1 NUE      -0.006500
     10 C10         -2.5050     1.1210     0.6520 ca         1 NUE      -0.288500
     11 C11         -0.5940     1.9020    -0.5470 ca         1 NUE      -0.118000
     12 C12         -1.7170     0.2120     1.3510 ca         1 NUE      -0.006500
     13 C13          0.2140     0.9970     0.1430 ca         1 NUE       0.155400
     14 C14         -0.3610     0.1540     1.0990 ca         1 NUE      -0.118000
     15 O15         -4.6680     2.5940     0.8390 o          1 NUE      -0.530500
     16 O16         -4.5330     0.4840     2.1830 o          1 NUE      -0.530500
     17 N17          1.5720     1.0160    -0.2010 ne         1 NUE      -0.244400
     18 N18          2.2780     0.1990     0.4280 nf         1 NUE      -0.189400
     19 C19          3.6160     0.1510     0.1310 ca         1 NUE      -0.052600
     20 C20          4.2450     0.9240    -0.8600 ca         1 NUE      -0.001000
     21 C21          4.3800    -0.7690     0.8890 ca         1 NUE       0.417000
     22 C22          5.5800     0.8040    -1.1330 ca         1 NUE      -0.166300
     23 C23          5.7600    -0.9080     0.6300 ca         1 NUE      -0.277300
     24 C24          6.3280    -0.1340    -0.3740 ca         1 NUE       0.226100
     25 N25          3.8020    -1.4800     1.8890 nv         1 NUE      -1.077000
     26 C26          6.5450    -1.8830     1.4620 c3         1 NUE      -0.033800
     27 O27          7.6250    -0.2050    -0.7030 oh         1 NUE      -0.527100
     28 C28          6.2520     1.6220    -2.1960 c3         1 NUE      -0.023800
     29 H1          -4.0990    -4.4720    -1.6620 ha         1 NUE       0.129000
     30 H2          -5.5410    -3.0460    -3.1400 ha         1 NUE       0.121000
     31 H3          -3.1420    -3.4410     0.3850 h4         1 NUE       0.022100
     32 H4          -5.9490    -0.6830    -2.5010 ha         1 NUE       0.128000
     33 HN7         -5.4260     1.0830    -0.9740 hn         1 NUE       0.518000
     34 H11         -0.1410     2.5540    -1.2830 ha         1 NUE       0.128000
     35 H12         -2.1590    -0.4490     2.0820 ha         1 NUE       0.137000
     36 H14          0.2510    -0.5520     1.6410 ha         1 NUE       0.128000
     37 H20          3.6430     1.6250    -1.4240 ha         1 NUE       0.137000
     38 HN25         2.7960    -1.4680     1.9330 hn         1 NUE       0.480500
     39 HN2A         4.2280    -2.3400     2.1890 hn         1 NUE       0.480500
     40 H26          6.2230    -2.9130     1.2910 hc         1 NUE       0.037367
     41 H26A         7.6180    -1.8690     1.2790 hc         1 NUE       0.037367
     42 H26B         6.4220    -1.6750     2.5270 hc         1 NUE       0.037367
     43 HO27         8.0900    -0.8790    -0.1960 ho         1 NUE       0.470000
     44 H28          7.0360     2.2600    -1.7840 hc         1 NUE       0.041700
     45 H28A         6.7190     0.9980    -2.9600 hc         1 NUE       0.041700
     46 H28B         5.5290     2.2670    -2.6930 hc         1 NUE       0.041700
     47 H9          -2.5620     2.6840    -0.8350 ha         1 NUE       0.137000
@<TRIPOS>BOND
     1     1     2 ar  
     2     1     3 ar  
     3     1    29 1   
     4     2     4 ar  
     5     2    30 1   
     6     3     5 ar  
     7     3    31 1   
     8     4     6 ar  
     9     4    32 1   
    10     5     6 ar  
    11     6     7 1   
    12     7     8 1   
    13     7    33 1   
    14     8    10 1   
    15     8    15 2   
    16     8    16 2   
    17     9    10 ar  
    18     9    11 ar  
    19     9    47 1   
    20    10    12 ar  
    21    11    13 ar  
    22    11    34 1   
    23    12    14 ar  
    24    12    35 1   
    25    13    14 ar  
    26    13    17 1   
    27    14    36 1   
    28    17    18 2   
    29    18    19 1   
    30    19    20 ar  
    31    19    21 ar  
    32    20    22 ar  
    33    20    37 1   
    34    21    23 ar  
    35    21    25 1   
    36    22    24 ar  
    37    22    28 1   
    38    23    24 ar  
    39    23    26 1   
    40    24    27 1   
    41    25    38 1   
    42    25    39 1   
    43    26    40 1   
    44    26    41 1   
    45    26    42 1   
    46    27    43 1   
    47    28    44 1   
    48    28    45 1   
    49    28    46 1   
@<TRIPOS>SUBSTRUCTURE
     1 NUE         1 TEMP              0 ****  ****    0 ROOT
