@<TRIPOS>MOLECULE
NUE
   47    49     1     0     0
SMALL
No Charge or Current Charge


@<TRIPOS>ATOM
      1 C1          -4.5590    -3.2310    -1.6790 ca         1 NUE      -0.197000
      2 C2          -4.8590    -2.1810    -2.5580 ca         1 NUE      -0.041000
      3 C3          -4.4720    -2.9660    -0.3020 ca         1 NUE       0.385900
      4 C4          -5.0530    -0.9050    -2.0080 ca         1 NUE      -0.199000
      5 N5          -4.6600    -1.7360     0.2230 nb         1 NUE      -0.732000
      6 C6          -4.9320    -0.7330    -0.6210 ca         1 NUE       0.619900
      7 N7          -5.1350     0.4930    -0.0610 nu         1 NUE      -0.893000
      8 S8          -4.2670     1.1940     1.1760 sy         1 NUE       1.196600
      9 C9          -1.8430     1.7000    -0.1080 ca         1 NUE      -0.006500
     10 C10         -2.5380     0.8670     0.7930 ca         1 NUE      -0.288500
     11 C11         -0.4970     1.4340    -0.4130 ca         1 NUE      -0.118000
     12 C12         -1.8780    -0.2320     1.3810 ca         1 NUE      -0.006500
     13 C13          0.1650     0.3420     0.1760 ca         1 NUE       0.155400
     14 C14         -0.5320    -0.4910     1.0700 ca         1 NUE      -0.118000
     15 O15         -4.5480     2.6160     0.9730 o          1 NUE      -0.530500
     16 O16         -4.6820     0.4830     2.3900 o          1 NUE      -0.530500
     17 N17          1.5110     0.0750    -0.1390 ne         1 NUE      -0.244400
     18 N18          2.3740     0.6990     0.5470 nf         1 NUE      -0.189400
     19 C19          3.7340     0.4300     0.2240 ca         1 NUE      -0.052600
     20 C20          4.3040     1.0760    -0.8840 ca         1 NUE      -0.001000
     21 C21          4.5190    -0.4590     0.9970 ca         1 NUE       0.417000
     22 C22          5.6400     0.8310    -1.2420 ca         1 NUE      -0.166300
     23 C23          5.8700    -0.7080     0.6620 ca         1 NUE      -0.277300
     24 C24          6.4130    -0.0620    -0.4720 ca         1 NUE       0.226100
     25 N25          3.9590    -1.0960     2.0760 nv         1 NUE      -1.077000
     26 C26          6.7250    -1.6710     1.5090 c3         1 NUE      -0.033800
     27 O27          7.7030    -0.3040    -0.8440 oh         1 NUE      -0.527100
     28 C28          6.2320     1.5340    -2.4620 c3         1 NUE      -0.023800
     29 H1          -4.3990    -4.2400    -2.0500 ha         1 NUE       0.129000
     30 H2          -4.9400    -2.3500    -3.6310 ha         1 NUE       0.121000
     31 H3          -4.2450    -3.7660     0.4030 h4         1 NUE       0.022100
     32 H4          -5.2920    -0.0630    -2.6500 ha         1 NUE       0.128000
     33 HN7         -5.2760     1.2390    -0.7200 hn         1 NUE       0.518000
     34 H11          0.0360     2.0770    -1.1090 ha         1 NUE       0.128000
     35 H12         -2.4030    -0.8910     2.0700 ha         1 NUE       0.137000
     36 H14         -0.0280    -1.3410     1.5220 ha         1 NUE       0.128000
     37 H20          3.6980     1.7630    -1.4730 ha         1 NUE       0.137000
     38 HN25         2.9460    -1.0560     2.1610 hn         1 NUE       0.480500
     39 HN2A         4.4190    -1.9210     2.4470 hn         1 NUE       0.480500
     40 H26          6.5430    -2.7140     1.2190 hc         1 NUE       0.037367
     41 H26A         7.8000    -1.4840     1.4170 hc         1 NUE       0.037367
     42 H26B         6.5050    -1.5800     2.5800 hc         1 NUE       0.037367
     43 HO27         8.0660    -0.9790    -0.2360 ho         1 NUE       0.470000
     44 H28          7.1020     2.1410    -2.1840 hc         1 NUE       0.041700
     45 H28A         6.5570     0.8070    -3.2160 hc         1 NUE       0.041700
     46 H28B         5.5070     2.2020    -2.9430 hc         1 NUE       0.041700
     47 H9          -2.3380     2.5500    -0.5750 ha         1 NUE       0.137000
@<TRIPOS>BOND
     1     1     2 ar  
     2     1     3 ar  
     3     1    29 1   
     4     2     4 ar  
     5     2    30 1   
     6     3     5 ar  
     7     3    31 1   
     8     4     6 ar  
     9     4    32 1   
    10     5     6 ar  
    11     6     7 1   
    12     7     8 1   
    13     7    33 1   
    14     8    10 1   
    15     8    15 2   
    16     8    16 2   
    17     9    10 ar  
    18     9    11 ar  
    19     9    47 1   
    20    10    12 ar  
    21    11    13 ar  
    22    11    34 1   
    23    12    14 ar  
    24    12    35 1   
    25    13    14 ar  
    26    13    17 1   
    27    14    36 1   
    28    17    18 2   
    29    18    19 1   
    30    19    20 ar  
    31    19    21 ar  
    32    20    22 ar  
    33    20    37 1   
    34    21    23 ar  
    35    21    25 1   
    36    22    24 ar  
    37    22    28 1   
    38    23    24 ar  
    39    23    26 1   
    40    24    27 1   
    41    25    38 1   
    42    25    39 1   
    43    26    40 1   
    44    26    41 1   
    45    26    42 1   
    46    27    43 1   
    47    28    44 1   
    48    28    45 1   
    49    28    46 1   
@<TRIPOS>SUBSTRUCTURE
     1 NUE         1 TEMP              0 ****  ****    0 ROOT
