@<TRIPOS>MOLECULE
NUG
   30    31     1     0     0
SMALL
abcg2


@<TRIPOS>ATOM
      1 N1           0.7960     0.6870     0.1180 n3         1 NUG      -0.723600
      2 C4          -0.3530     1.3470     0.7010 c3         1 NUG       0.219000
      3 C5          -1.6220     0.5880     0.4620 c2         1 NUG      -0.115400
      4 C6          -2.5320     0.3040     1.3870 c2         1 NUG      -0.228200
      5 C7          -3.7800    -0.3890     0.9470 c5         1 NUG       0.108800
      6 C8          -1.9400     0.1460    -0.9360 c5         1 NUG       0.115800
      7 C10          3.1050     0.9070    -0.6800 c6         1 NUG      -0.093900
      8 C1           3.4780    -0.4040    -0.0130 c6         1 NUG       0.171300
      9 C2           2.2430    -1.2890     0.0890 c6         1 NUG      -0.093900
     10 C3           1.1140    -0.5560     0.7970 c6         1 NUG       0.169800
     11 C9           1.9480     1.5670     0.0550 c6         1 NUG       0.169800
     12 O1           4.5180    -1.0070    -0.7550 oh         1 NUG      -0.656000
     13 S1          -3.6000    -0.6080    -0.8590 ss         1 NUG      -0.464000
     14 H2          -0.2310     1.5340     1.7810 h1         1 NUG       0.041200
     15 H3          -0.4520     2.3290     0.2250 h1         1 NUG       0.041200
     16 H5          -2.4060     0.5590     2.4330 ha         1 NUG       0.192000
     17 H7          -3.9050    -1.3570     1.4370 h1         1 NUG       0.075200
     18 H8          -4.6710     0.2030     1.1660 h1         1 NUG       0.075200
     19 H9          -1.9370     0.9890    -1.6310 h1         1 NUG       0.084200
     20 H10         -1.2120    -0.5790    -1.3040 h1         1 NUG       0.084200
     21 H11          3.9600     1.5880    -0.6940 hc         1 NUG       0.057450
     22 H12          2.8150     0.7200    -1.7190 hc         1 NUG       0.057450
     23 H13          3.8210    -0.1790     1.0100 h1         1 NUG       0.023700
     24 H14          1.9180    -1.5750    -0.9160 hc         1 NUG       0.057450
     25 H15          2.4760    -2.2090     0.6330 hc         1 NUG       0.057450
     26 H16          1.3920    -0.3770     1.8510 h1         1 NUG       0.033450
     27 H17          0.2250    -1.1900     0.8170 h1         1 NUG       0.033450
     28 H18          1.6600     2.4820    -0.4660 h1         1 NUG       0.033450
     29 H19          2.2820     1.8720     1.0630 h1         1 NUG       0.033450
     30 H20          4.7580    -1.8310    -0.3190 ho         1 NUG       0.442000
@<TRIPOS>BOND
     1     1     2 1   
     2     1    10 1   
     3     1    11 1   
     4     2     3 1   
     5     2    14 1   
     6     2    15 1   
     7     3     4 2   
     8     3     6 1   
     9     4     5 1   
    10     4    16 1   
    11     5    13 1   
    12     5    17 1   
    13     5    18 1   
    14     6    13 1   
    15     6    19 1   
    16     6    20 1   
    17     7     8 1   
    18     7    11 1   
    19     7    21 1   
    20     7    22 1   
    21     8     9 1   
    22     8    12 1   
    23     8    23 1   
    24     9    10 1   
    25     9    24 1   
    26     9    25 1   
    27    10    26 1   
    28    10    27 1   
    29    11    28 1   
    30    11    29 1   
    31    12    30 1   
@<TRIPOS>SUBSTRUCTURE
     1 NUG         1 TEMP              0 ****  ****    0 ROOT
