@<TRIPOS>MOLECULE
NUG
   30    31     1     0     0
SMALL
No Charge or Current Charge


@<TRIPOS>ATOM
      1 N1           0.7910     0.7450     0.0520 n3         1 NUG      -0.723600
      2 C4          -0.3930     1.4630     0.5810 c3         1 NUG       0.219000
      3 C5          -1.6740     0.6700     0.4060 c2         1 NUG      -0.115400
      4 C6          -2.4650     0.2510     1.4050 c2         1 NUG      -0.228200
      5 C7          -3.6900    -0.5430     1.0030 c5         1 NUG       0.108800
      6 C8          -2.1410     0.2770    -0.9830 c5         1 NUG       0.115800
      7 C10          3.1900     0.8960    -0.6630 c6         1 NUG      -0.093900
      8 C1           3.5040    -0.4300     0.0610 c6         1 NUG       0.171300
      9 C2           2.2350    -1.3080     0.1240 c6         1 NUG      -0.093900
     10 C3           1.0660    -0.5320     0.7730 c6         1 NUG       0.169800
     11 C9           1.9970     1.6150     0.0080 c6         1 NUG       0.169800
     12 O1           4.5560    -1.1240    -0.6180 oh         1 NUG      -0.656000
     13 S1          -3.9620    -0.0470    -0.7660 ss         1 NUG      -0.464000
     14 H2          -0.2470     1.6990     1.6450 h1         1 NUG       0.041200
     15 H3          -0.5120     2.4200     0.0560 h1         1 NUG       0.041200
     16 H5          -2.2340     0.4640     2.4500 ha         1 NUG       0.192000
     17 H7          -3.5110    -1.6250     1.0670 h1         1 NUG       0.075200
     18 H8          -4.5730    -0.2980     1.6100 h1         1 NUG       0.075200
     19 H9          -1.9760     1.0710    -1.7230 h1         1 NUG       0.084200
     20 H10         -1.6330    -0.6320    -1.3320 h1         1 NUG       0.084200
     21 H11          4.0710     1.5510    -0.6500 hc         1 NUG       0.057450
     22 H12          2.9530     0.7030    -1.7180 hc         1 NUG       0.057450
     23 H13          3.8180    -0.1970     1.0900 h1         1 NUG       0.023700
     24 H14          1.9440    -1.6240    -0.8870 hc         1 NUG       0.057450
     25 H15          2.4320    -2.2220     0.6990 hc         1 NUG       0.057450
     26 H16          1.3090    -0.3280     1.8260 h1         1 NUG       0.033450
     27 H17          0.1770    -1.1800     0.7680 h1         1 NUG       0.033450
     28 H18          1.7820     2.5350    -0.5550 h1         1 NUG       0.033450
     29 H19          2.2860     1.9180     1.0260 h1         1 NUG       0.033450
     30 H20          4.7700    -1.9130    -0.0740 ho         1 NUG       0.442000
@<TRIPOS>BOND
     1     1     2 1   
     2     1    10 1   
     3     1    11 1   
     4     2     3 1   
     5     2    14 1   
     6     2    15 1   
     7     3     4 2   
     8     3     6 1   
     9     4     5 1   
    10     4    16 1   
    11     5    13 1   
    12     5    17 1   
    13     5    18 1   
    14     6    13 1   
    15     6    19 1   
    16     6    20 1   
    17     7     8 1   
    18     7    11 1   
    19     7    21 1   
    20     7    22 1   
    21     8     9 1   
    22     8    12 1   
    23     8    23 1   
    24     9    10 1   
    25     9    24 1   
    26     9    25 1   
    27    10    26 1   
    28    10    27 1   
    29    11    28 1   
    30    11    29 1   
    31    12    30 1   
@<TRIPOS>SUBSTRUCTURE
     1 NUG         1 TEMP              0 ****  ****    0 ROOT
