@<TRIPOS>MOLECULE
NUH
   29    30     1     0     0
SMALL
abcg2


@<TRIPOS>ATOM
      1 C4           3.4220     1.0230     0.2750 ca         1 NUH      -0.199000
      2 C5           2.4390     1.9690     0.5420 ca         1 NUH      -0.068000
      3 C6           1.0950     1.6430     0.5030 ca         1 NUH      -0.151000
      4 C7           0.7040     0.3400     0.1770 ca         1 NUH       0.014200
      5 C8           1.6840    -0.6090    -0.0920 ca         1 NUH      -0.143000
      6 C10         -1.1820    -1.3200     0.5010 cc         1 NUH      -0.076000
      7 C15         -3.9330     1.5280    -0.8680 c3         1 NUH       0.074300
      8 C1           5.2840    -0.9990    -0.3030 c3         1 NUH       0.148900
      9 C3           3.0390    -0.2780    -0.0420 ca         1 NUH       0.145100
     10 C9          -0.7190    -0.0340     0.1180 cc         1 NUH      -0.146200
     11 C11         -2.4980    -1.6420     0.4350 cd         1 NUH      -0.322200
     12 C12         -3.4850    -0.7060    -0.0280 c          1 NUH       0.547200
     13 O13         -4.6890    -0.9330    -0.1170 o          1 NUH      -0.558000
     14 N14         -2.9790     0.5370    -0.3890 n          1 NUH      -0.266000
     15 C16         -1.6640     0.8460    -0.3210 cd         1 NUH      -0.016400
     16 H1           4.4620     1.3140     0.3220 ha         1 NUH       0.118000
     17 H2           2.7370     2.9770     0.8000 ha         1 NUH       0.111000
     18 H3           0.3540     2.3930     0.7470 ha         1 NUH       0.111000
     19 H4           1.4090    -1.6190    -0.3690 ha         1 NUH       0.128000
     20 H5          -0.4750    -2.0550     0.8680 ha         1 NUH       0.191000
     21 H6          -4.6980     1.7130    -0.1170 h1         1 NUH       0.055033
     22 H7          -3.4090     2.4570    -1.0720 h1         1 NUH       0.055033
     23 H8          -4.4150     1.1860    -1.7820 h1         1 NUH       0.055033
     24 H9           5.7880    -1.9230    -0.5730 h1         1 NUH       0.040700
     25 H10          5.5580    -0.2260    -1.0260 h1         1 NUH       0.040700
     26 H11          5.6250    -0.6900     0.6890 h1         1 NUH       0.040700
     27 H12         -2.8480    -2.6190     0.7400 ha         1 NUH       0.210000
     28 H13         -1.4020     1.8380    -0.6600 h4         1 NUH       0.201000
     29 O2           3.8980    -1.2750    -0.3240 os         1 NUH      -0.342100
@<TRIPOS>BOND
     1     1     2 ar  
     2     1     9 ar  
     3     1    16 1   
     4     2     3 ar  
     5     2    17 1   
     6     3     4 ar  
     7     3    18 1   
     8     4     5 ar  
     9     4    10 1   
    10     5     9 ar  
    11     5    19 1   
    12     6    10 1   
    13     6    11 2   
    14     6    20 1   
    15     7    14 1   
    16     7    21 1   
    17     7    22 1   
    18     7    23 1   
    19     8    24 1   
    20     8    25 1   
    21     8    26 1   
    22     8    29 1   
    23     9    29 1   
    24    10    15 2   
    25    11    12 1   
    26    11    27 1   
    27    12    13 2   
    28    12    14 1   
    29    14    15 1   
    30    15    28 1   
@<TRIPOS>SUBSTRUCTURE
     1 NUH         1 TEMP              0 ****  ****    0 ROOT
