@<TRIPOS>MOLECULE
NUH
   29    30     1     0     0
SMALL
No Charge or Current Charge


@<TRIPOS>ATOM
      1 C4           3.4330     1.0600     0.1570 ca         1 NUH      -0.199000
      2 C5           2.4350     2.0360     0.2910 ca         1 NUH      -0.068000
      3 C6           1.0790     1.6700     0.2800 ca         1 NUH      -0.151000
      4 C7           0.6880     0.3160     0.1320 ca         1 NUH       0.014200
      5 C8           1.7110    -0.6520     0.0080 ca         1 NUH      -0.143000
      6 C10         -1.1920    -1.4450     0.3360 cc         1 NUH      -0.076000
      7 C15         -4.0100     1.6440    -0.6660 c3         1 NUH       0.074300
      8 C1           5.4170    -1.0420    -0.1290 c3         1 NUH       0.148900
      9 C3           3.0690    -0.2930     0.0160 ca         1 NUH       0.145100
     10 C9          -0.7360    -0.0960     0.1220 cc         1 NUH      -0.146200
     11 C11         -2.5350    -1.7310     0.2440 cd         1 NUH      -0.322200
     12 C12         -3.5510    -0.7210    -0.0850 c          1 NUH       0.547200
     13 O13         -4.7410    -0.9970    -0.1570 o          1 NUH      -0.558000
     14 N14         -3.0460     0.5770    -0.3130 n          1 NUH      -0.266000
     15 C16         -1.6790     0.8640    -0.2250 cd         1 NUH      -0.016400
     16 H1           4.4730     1.3710     0.1690 ha         1 NUH       0.118000
     17 H2           2.7120     3.0810     0.4120 ha         1 NUH       0.111000
     18 H3           0.3470     2.4580     0.4220 ha         1 NUH       0.111000
     19 H4           1.4710    -1.7010    -0.1250 ha         1 NUH       0.128000
     20 H5          -0.4880    -2.2310     0.5950 ha         1 NUH       0.191000
     21 H6          -4.7710     1.7300     0.1190 h1         1 NUH       0.055033
     22 H7          -3.5030     2.6120    -0.7710 h1         1 NUH       0.055033
     23 H8          -4.5000     1.3980    -1.6160 h1         1 NUH       0.055033
     24 H9           5.9750    -1.9790    -0.2490 h1         1 NUH       0.040700
     25 H10          5.6880    -0.3760    -0.9580 h1         1 NUH       0.040700
     26 H11          5.7330    -0.5770     0.8140 h1         1 NUH       0.040700
     27 H12         -2.9240    -2.7290     0.4130 ha         1 NUH       0.210000
     28 H13         -1.4530     1.8920    -0.4820 h4         1 NUH       0.201000
     29 O2           4.0020    -1.3010    -0.1220 os         1 NUH      -0.342100
@<TRIPOS>BOND
     1     1     2 ar  
     2     1     9 ar  
     3     1    16 1   
     4     2     3 ar  
     5     2    17 1   
     6     3     4 ar  
     7     3    18 1   
     8     4     5 ar  
     9     4    10 1   
    10     5     9 ar  
    11     5    19 1   
    12     6    10 1   
    13     6    11 2   
    14     6    20 1   
    15     7    14 1   
    16     7    21 1   
    17     7    22 1   
    18     7    23 1   
    19     8    24 1   
    20     8    25 1   
    21     8    26 1   
    22     8    29 1   
    23     9    29 1   
    24    10    15 2   
    25    11    12 1   
    26    11    27 1   
    27    12    13 2   
    28    12    14 1   
    29    14    15 1   
    30    15    28 1   
@<TRIPOS>SUBSTRUCTURE
     1 NUH         1 TEMP              0 ****  ****    0 ROOT
