@<TRIPOS>MOLECULE
NUJ
   32    33     1     0     0
SMALL
bcc


@<TRIPOS>ATOM
      1 N1           0.6320     0.5790     0.0500 nh         1 NUJ      -0.773300
      2 N3          -1.0580    -0.9980    -0.0600 nb         1 NUJ      -0.805000
      3 C4           3.7800    -0.0140     0.0190 cy         1 NUJ       0.127100
      4 C5           2.7480    -0.3770     1.1100 cy         1 NUJ      -0.123900
      5 C6          -0.6870     0.2830     0.0190 ca         1 NUJ       0.728200
      6 C7          -1.6750     1.2910     0.0660 ca         1 NUJ      -0.445600
      7 C8          -2.9910     0.8930     0.0230 ca         1 NUJ       0.483600
      8 C10         -2.3530    -1.2770    -0.0960 ca         1 NUJ       0.710300
      9 C1           1.0370     1.9670     0.1100 c3         1 NUJ       0.209100
     10 C11         -2.7140    -2.7290    -0.1740 c3         1 NUJ      -0.134400
     11 C2           1.6420    -0.4560     0.0280 cy         1 NUJ       0.227500
     12 C3           2.7390    -0.3410    -1.0610 cy         1 NUJ      -0.123900
     13 C9          -4.1050     1.8890     0.0680 c3         1 NUJ      -0.149400
     14 N2          -3.3440    -0.4000    -0.0600 nb         1 NUJ      -0.754000
     15 O1           4.9510    -0.7770    -0.0730 oh         1 NUJ      -0.582800
     16 H1           4.0160     1.0570     0.0400 h1         1 NUJ       0.031700
     17 H2           2.9420    -1.3560     1.5510 hc         1 NUJ       0.066200
     18 H3           2.6060     0.3440     1.9170 hc         1 NUJ       0.066200
     19 H4          -1.4320     2.3410     0.1330 ha         1 NUJ       0.146000
     20 H5           0.6940     2.4540     1.0260 h1         1 NUJ       0.039700
     21 H6           2.1200     2.0410     0.0910 h1         1 NUJ       0.039700
     22 H7           0.6610     2.5350    -0.7430 h1         1 NUJ       0.039700
     23 H8          -2.4340    -3.2400     0.7490 hc         1 NUJ       0.056700
     24 H9          -3.7820    -2.8610    -0.3290 hc         1 NUJ       0.056700
     25 H10         -2.1740    -3.2180    -0.9850 hc         1 NUJ       0.056700
     26 H11          1.1200    -1.4060     0.0120 h1         1 NUJ       0.110700
     27 H12          2.5910     0.4030    -1.8450 hc         1 NUJ       0.066200
     28 H13          2.9280    -1.3080    -1.5300 hc         1 NUJ       0.066200
     29 H14         -4.7530     1.7770    -0.8020 hc         1 NUJ       0.052700
     30 H15         -4.7260     1.7250     0.9510 hc         1 NUJ       0.052700
     31 H16         -3.7360     2.9120     0.0960 hc         1 NUJ       0.052700
     32 H17          5.5560    -0.4870     0.6170 ho         1 NUJ       0.406000
@<TRIPOS>BOND
     1     1     5 1   
     2     1     9 1   
     3     1    11 1   
     4     2     5 ar  
     5     2     8 ar  
     6     3     4 1   
     7     3    12 1   
     8     3    15 1   
     9     3    16 1   
    10     4    11 1   
    11     4    17 1   
    12     4    18 1   
    13     5     6 ar  
    14     6     7 ar  
    15     6    19 1   
    16     7    13 1   
    17     7    14 ar  
    18     8    10 1   
    19     8    14 ar  
    20     9    20 1   
    21     9    21 1   
    22     9    22 1   
    23    10    23 1   
    24    10    24 1   
    25    10    25 1   
    26    11    12 1   
    27    11    26 1   
    28    12    27 1   
    29    12    28 1   
    30    13    29 1   
    31    13    30 1   
    32    13    31 1   
    33    15    32 1   
@<TRIPOS>SUBSTRUCTURE
     1 NUJ         1 TEMP              0 ****  ****    0 ROOT
