@<TRIPOS>MOLECULE
NUJ
   32    33     1     0     0
SMALL
No Charge or Current Charge


@<TRIPOS>ATOM
      1 N1           0.6920     0.5300    -0.0920 nh         1 NUJ      -0.773300
      2 N3          -1.0920    -0.9740    -0.4510 nb         1 NUJ      -0.279000
      3 C4           3.7240     0.0930     0.1210 cy         1 NUJ       0.150300
      4 C5           2.7680    -0.1260     1.3350 cy         1 NUJ      -0.123900
      5 C6          -0.6980     0.2620    -0.0860 ca         1 NUJ       0.399900
      6 C7          -1.6390     1.2350     0.2880 ca         1 NUJ      -0.297000
      7 C8          -2.9970     0.8810     0.2630 ca         1 NUJ       0.155300
      8 C10         -2.4170    -1.2220    -0.4460 ca         1 NUJ       0.184300
      9 C1           1.1340     1.8720    -0.5510 c3         1 NUJ       0.209100
     10 C11         -2.8540    -2.6190    -0.8500 c3         1 NUJ      -0.134400
     11 C2           1.6520    -0.5220     0.3100 cy         1 NUJ       0.227500
     12 C3           2.8060    -0.8770    -0.6870 cy         1 NUJ      -0.123900
     13 C9          -4.0820     1.8630     0.6610 c3         1 NUJ      -0.149400
     14 N2          -3.3900    -0.3530    -0.1040 nb         1 NUJ      -0.228000
     15 O1           5.0560    -0.3490     0.3080 oh         1 NUJ      -0.645000
     16 H1           3.7250     1.1210    -0.2580 h1         1 NUJ       0.031700
     17 H2           3.0640    -0.9460     1.9990 hc         1 NUJ       0.066200
     18 H3           2.5640     0.7590     1.9470 hc         1 NUJ       0.066200
     19 H4          -1.3320     2.2260     0.6060 ha         1 NUJ       0.128000
     20 H5           1.5220     2.4600     0.2910 h1         1 NUJ       0.039700
     21 H6           1.9150     1.7830    -1.3160 h1         1 NUJ       0.039700
     22 H7           0.3080     2.4300    -1.0110 h1         1 NUJ       0.039700
     23 H8          -2.8860    -3.2830     0.0210 hc         1 NUJ       0.056700
     24 H9          -3.8530    -2.6120    -1.3040 hc         1 NUJ       0.056700
     25 H10         -2.1650    -3.0590    -1.5820 hc         1 NUJ       0.056700
     26 H11          1.1330    -1.4280     0.6520 h1         1 NUJ       0.110700
     27 H12          2.6330    -0.6090    -1.7340 hc         1 NUJ       0.066200
     28 H13          3.1140    -1.9280    -0.6440 hc         1 NUJ       0.066200
     29 H14         -4.9860     1.7300     0.0540 hc         1 NUJ       0.052700
     30 H15         -4.3610     1.7290     1.7130 hc         1 NUJ       0.052700
     31 H16         -3.7480     2.9000     0.5320 hc         1 NUJ       0.052700
     32 H17          5.4890     0.2760     0.9320 ho         1 NUJ       0.445000
@<TRIPOS>BOND
     1     1     5 1   
     2     1     9 1   
     3     1    11 1   
     4     2     5 ar  
     5     2     8 ar  
     6     3     4 1   
     7     3    12 1   
     8     3    15 1   
     9     3    16 1   
    10     4    11 1   
    11     4    17 1   
    12     4    18 1   
    13     5     6 ar  
    14     6     7 ar  
    15     6    19 1   
    16     7    13 1   
    17     7    14 ar  
    18     8    10 1   
    19     8    14 ar  
    20     9    20 1   
    21     9    21 1   
    22     9    22 1   
    23    10    23 1   
    24    10    24 1   
    25    10    25 1   
    26    11    12 1   
    27    11    26 1   
    28    12    27 1   
    29    12    28 1   
    30    13    29 1   
    31    13    30 1   
    32    13    31 1   
    33    15    32 1   
@<TRIPOS>SUBSTRUCTURE
     1 NUJ         1 TEMP              0 ****  ****    0 ROOT
