@<TRIPOS>MOLECULE
NUK
   14    15     1     0     0
SMALL
bcc


@<TRIPOS>ATOM
      1 O1           3.1890    -1.4900     0.0150 o          1 NUK      -0.812300
      2 C5           2.7490    -0.3280     0.0070 c          1 NUK       0.942200
      3 O            3.3860     0.7420     0.0060 o          1 NUK      -0.812300
      4 C4           1.2530    -0.1750    -0.0030 cc         1 NUK      -0.046700
      5 C3           0.2830    -1.1320    -0.0040 cd         1 NUK      -0.146000
      6 S1           0.6070     1.4370    -0.0140 ss         1 NUK      -0.057800
      7 C6          -1.0050     0.8340    -0.0200 cc         1 NUK      -0.110100
      8 C           -2.3030     1.4110    -0.0300 cc         1 NUK      -0.086000
      9 C2          -1.0100    -0.5510    -0.0130 cd         1 NUK      -0.009100
     10 S           -2.6230    -1.1570    -0.0200 ss         1 NUK      -0.168800
     11 C1          -3.2640     0.4490    -0.0300 cd         1 NUK      -0.137100
     12 H3           0.4900    -2.1920     0.0010 ha         1 NUK       0.162000
     13 HA          -2.5130     2.4700    -0.0360 ha         1 NUK       0.137000
     14 H1          -4.3340     0.5940    -0.0370 h4         1 NUK       0.142000
@<TRIPOS>BOND
     1     1     2 1   
     2     2     3 1   
     3     2     4 1   
     4     4     5 2   
     5     4     6 1   
     6     5     9 1   
     7     5    12 1   
     8     6     7 1   
     9     7     8 1   
    10     7     9 2   
    11     8    11 2   
    12     8    13 1   
    13     9    10 1   
    14    10    11 1   
    15    11    14 1   
@<TRIPOS>SUBSTRUCTURE
     1 NUK         1 TEMP              0 ****  ****    0 ROOT
