@<TRIPOS>MOLECULE
NUK
   14    15     1     0     0
SMALL
No Charge or Current Charge


@<TRIPOS>ATOM
      1 O1           3.1370    -1.5050     0.0140 o          1 NUK      -0.707000
      2 C5           2.7380    -0.3490     0.0070 c          1 NUK       0.731600
      3 O            3.4960     0.6100     0.0070 o          1 NUK      -0.707000
      4 C4           1.2780    -0.1000    -0.0030 cc         1 NUK      -0.191600
      5 C3           0.2990    -1.0830    -0.0040 cd         1 NUK      -0.128000
      6 S1           0.5820     1.5380    -0.0140 ss         1 NUK       0.232000
      7 C6          -1.0260     0.8320    -0.0200 cc         1 NUK      -0.255000
      8 C           -2.3190     1.3970    -0.0300 cc         1 NUK      -0.068000
      9 C2          -0.9960    -0.5090    -0.0140 cd         1 NUK      -0.154000
     10 S           -2.6060    -1.2280    -0.0200 ss         1 NUK       0.121000
     11 C1          -3.2990     0.4260    -0.0310 cd         1 NUK      -0.264000
     12 H3           0.4980    -2.1510     0.0020 ha         1 NUK       0.144000
     13 HA          -2.5040     2.4680    -0.0360 ha         1 NUK       0.119000
     14 H1          -4.3730     0.5640    -0.0380 h4         1 NUK       0.124000
@<TRIPOS>BOND
     1     1     2 1   
     2     2     3 1   
     3     2     4 1   
     4     4     5 2   
     5     4     6 1   
     6     5     9 1   
     7     5    12 1   
     8     6     7 1   
     9     7     8 1   
    10     7     9 2   
    11     8    11 2   
    12     8    13 1   
    13     9    10 1   
    14    10    11 1   
    15    11    14 1   
@<TRIPOS>SUBSTRUCTURE
     1 NUK         1 TEMP              0 ****  ****    0 ROOT
