@<TRIPOS>MOLECULE
NUL
   50    52     1     0     0
SMALL
abcg2


@<TRIPOS>ATOM
      1 C13          1.0810    -1.1420    84.1580 ca         1 NUL      -0.114000
      2 C17          1.6950     0.0340    84.6400 ca         1 NUL      -0.084000
      3 C20         -0.5700    -1.0120    85.9750 ca         1 NUL      -0.060300
      4 C22         -1.7720    -1.5620    86.6860 c3         1 NUL      -0.035800
      5 C24          4.0620    -3.5880    85.0310 c3         1 NUL      -0.080600
      6 C1           0.9820    -3.0120    82.6150 ca         1 NUL      -0.170300
      7 C2           1.5140    -3.8160    81.4450 c3         1 NUL       0.233600
      8 C4           2.5800    -4.8960    81.7640 c6         1 NUL      -0.040700
      9 C5           3.7300    -4.3740    82.6460 c6         1 NUL       0.184300
     10 C6           3.6980    -4.8030    84.1650 c6         1 NUL      -0.053800
     11 C7           2.3420    -5.3380    84.5690 c2         1 NUL      -0.196200
     12 C8           1.5770    -6.0300    83.7350 c2         1 NUL      -0.251200
     13 C9           2.0140    -6.2100    82.3100 c6         1 NUL       0.210500
     14 C12          1.5730    -1.8550    83.0360 ca         1 NUL      -0.041000
     15 C14         -0.0590    -1.6670    84.8210 ca         1 NUL       0.316000
     16 C16         -0.2070    -3.4000    83.3130 ca         1 NUL       0.608300
     17 C18          1.1920     0.6600    85.7540 ca         1 NUL      -0.117000
     18 C19          0.0660     0.1320    86.4140 ca         1 NUL      -0.097000
     19 C23         -2.0060    -4.9460    83.5110 c3         1 NUL       0.158900
     20 C25          4.7180    -5.9280    84.4540 c3         1 NUL      -0.080600
     21 N15         -0.6880    -2.7860    84.3570 nb         1 NUL      -0.768000
     22 O3           2.1560    -2.9490    80.4960 oh         1 NUL      -0.669000
     23 O10          4.9450    -4.7650    81.9900 oh         1 NUL      -0.664000
     24 O11          0.9800    -6.6750    81.4410 oh         1 NUL      -0.658000
     25 O21         -0.8490    -4.4700    82.8150 os         1 NUL      -0.458300
     26 H1           2.5650     0.4230    84.1240 ha         1 NUL       0.114000
     27 H2          -1.5940    -2.5840    87.0290 hc         1 NUL       0.045367
     28 H3          -2.0240    -0.9450    87.5480 hc         1 NUL       0.045367
     29 H4          -2.6380    -1.6030    86.0210 hc         1 NUL       0.045367
     30 H5           3.3230    -2.7940    84.9250 hc         1 NUL       0.037033
     31 H6           4.1080    -3.8720    86.0850 hc         1 NUL       0.037033
     32 H7           5.0380    -3.1900    84.7440 hc         1 NUL       0.037033
     33 H8           0.6760    -4.3210    80.9670 h1         1 NUL       0.081700
     34 H9           3.0200    -5.1170    80.7900 hc         1 NUL       0.098700
     35 H10          3.6870    -3.2850    82.6310 h1         1 NUL       0.042700
     36 H11          2.0480    -5.1940    85.6030 ha         1 NUL       0.179000
     37 H12          0.6350    -6.4650    84.0440 ha         1 NUL       0.182000
     38 H13          2.8380    -6.9350    82.2800 h1         1 NUL       0.048700
     39 H14          2.4420    -1.4730    82.5190 ha         1 NUL       0.130000
     40 H15          1.6590     1.5610    86.1330 ha         1 NUL       0.116000
     41 H16         -0.3160     0.6380    87.2930 ha         1 NUL       0.114000
     42 H17         -2.3420    -5.8130    82.9490 h1         1 NUL       0.046700
     43 H18         -1.7480    -5.2320    84.5310 h1         1 NUL       0.046700
     44 H19         -2.7840    -4.1830    83.5380 h1         1 NUL       0.046700
     45 H20          4.5510    -6.7980    83.8190 hc         1 NUL       0.037033
     46 H21          5.7440    -5.5880    84.3060 hc         1 NUL       0.037033
     47 H22          4.6170    -6.2400    85.4950 hc         1 NUL       0.037033
     48 H23          1.5340    -2.2470    80.2640 ho         1 NUL       0.443000
     49 H24          5.6870    -4.3560    82.4520 ho         1 NUL       0.440000
     50 H25          0.6830    -7.5340    81.7620 ho         1 NUL       0.442000
@<TRIPOS>BOND
     1     1     2 ar  
     2     1    14 ar  
     3     1    15 ar  
     4     2    17 ar  
     5     2    26 1   
     6     3     4 1   
     7     3    15 ar  
     8     3    18 ar  
     9     4    27 1   
    10     4    28 1   
    11     4    29 1   
    12     5    10 1   
    13     5    30 1   
    14     5    31 1   
    15     5    32 1   
    16     6     7 1   
    17     6    14 ar  
    18     6    16 ar  
    19     7     8 1   
    20     7    22 1   
    21     7    33 1   
    22     8     9 1   
    23     8    13 1   
    24     8    34 1   
    25     9    10 1   
    26     9    23 1   
    27     9    35 1   
    28    10    11 1   
    29    10    20 1   
    30    11    12 2   
    31    11    36 1   
    32    12    13 1   
    33    12    37 1   
    34    13    24 1   
    35    13    38 1   
    36    14    39 1   
    37    15    21 ar  
    38    16    21 ar  
    39    16    25 1   
    40    17    18 ar  
    41    17    40 1   
    42    18    41 1   
    43    19    25 1   
    44    19    42 1   
    45    19    43 1   
    46    19    44 1   
    47    20    45 1   
    48    20    46 1   
    49    20    47 1   
    50    22    48 1   
    51    23    49 1   
    52    24    50 1   
@<TRIPOS>SUBSTRUCTURE
     1 NUL         1 TEMP              0 ****  ****    0 ROOT
