@<TRIPOS>MOLECULE
NUL
   50    52     1     0     0
SMALL
No Charge or Current Charge


@<TRIPOS>ATOM
      1 C13          1.0620    -1.2980    84.2990 ca         1 NUL      -0.114000
      2 C17          1.7530    -0.2110    84.8660 ca         1 NUL      -0.084000
      3 C20         -0.7010    -1.0540    85.9660 ca         1 NUL      -0.060300
      4 C22         -2.0300    -1.4790    86.5890 c3         1 NUL      -0.035800
      5 C24          4.4430    -3.4790    84.8580 c3         1 NUL      -0.080600
      6 C1           0.9210    -3.0640    82.6420 ca         1 NUL      -0.170300
      7 C2           1.4930    -3.8360    81.4420 c3         1 NUL       0.233600
      8 C4           2.5810    -4.9410    81.7510 c6         1 NUL      -0.040700
      9 C5           3.8520    -4.3930    82.5040 c6         1 NUL       0.184300
     10 C6           3.9180    -4.7160    84.0660 c6         1 NUL      -0.053800
     11 C7           2.5520    -5.1210    84.6250 c2         1 NUL      -0.196200
     12 C8           1.6870    -5.8410    83.8950 c2         1 NUL      -0.251200
     13 C9           2.0220    -6.2010    82.4670 c6         1 NUL       0.210500
     14 C12          1.6050    -1.9600    83.1870 ca         1 NUL      -0.041000
     15 C14         -0.1730    -1.7350    84.8370 ca         1 NUL       0.316000
     16 C16         -0.3200    -3.4180    83.2200 ca         1 NUL       0.608300
     17 C18          1.2220     0.4520    85.9800 ca         1 NUL      -0.117000
     18 C19          0.0010     0.0320    86.5280 ca         1 NUL      -0.097000
     19 C23         -2.2870    -4.8950    83.2340 c3         1 NUL       0.158900
     20 C25          4.8780    -5.9050    84.4140 c3         1 NUL      -0.080600
     21 N15         -0.8450    -2.7710    84.2850 nb         1 NUL      -0.768000
     22 O3           2.0030    -2.8910    80.4880 oh         1 NUL      -0.669000
     23 O10          5.0410    -4.8430    81.8320 oh         1 NUL      -0.664000
     24 O11          0.8810    -6.7420    81.8030 oh         1 NUL      -0.658000
     25 O21         -1.0510    -4.4380    82.6530 os         1 NUL      -0.458300
     26 H1           2.7020     0.1190    84.4470 ha         1 NUL       0.114000
     27 H2          -1.9880    -2.5200    86.9320 hc         1 NUL       0.045367
     28 H3          -2.2940    -0.8590    87.4550 hc         1 NUL       0.045367
     29 H4          -2.8480    -1.3960    85.8650 hc         1 NUL       0.045367
     30 H5           3.7690    -2.6220    84.7600 hc         1 NUL       0.037033
     31 H6           4.5360    -3.6950    85.9300 hc         1 NUL       0.037033
     32 H7           5.4300    -3.1640    84.5000 hc         1 NUL       0.037033
     33 H8           0.6610    -4.3650    80.9570 h1         1 NUL       0.081700
     34 H9           2.9010    -5.2750    80.7560 hc         1 NUL       0.098700
     35 H10          3.8280    -3.3010    82.4020 h1         1 NUL       0.042700
     36 H11          2.3150    -4.8320    85.6520 ha         1 NUL       0.179000
     37 H12          0.7180    -6.1470    84.2910 ha         1 NUL       0.182000
     38 H13          2.8180    -6.9610    82.4820 h1         1 NUL       0.048700
     39 H14          2.5430    -1.6160    82.7600 ha         1 NUL       0.130000
     40 H15          1.7570     1.2910    86.4200 ha         1 NUL       0.116000
     41 H16         -0.4010     0.5550    87.3930 ha         1 NUL       0.114000
     42 H17         -2.7040    -5.7200    82.6440 h1         1 NUL       0.046700
     43 H18         -2.1280    -5.2560    84.2590 h1         1 NUL       0.046700
     44 H19         -3.0310    -4.0880    83.2600 h1         1 NUL       0.046700
     45 H20          4.6190    -6.8150    83.8610 hc         1 NUL       0.037033
     46 H21          5.9260    -5.6680    84.1910 hc         1 NUL       0.037033
     47 H22          4.8310    -6.1540    85.4810 hc         1 NUL       0.037033
     48 H23          1.2580    -2.2960    80.2520 ho         1 NUL       0.443000
     49 H24          5.7990    -4.4540    82.3190 ho         1 NUL       0.440000
     50 H25          0.6370    -7.5580    82.2910 ho         1 NUL       0.442000
@<TRIPOS>BOND
     1     1     2 ar  
     2     1    14 ar  
     3     1    15 ar  
     4     2    17 ar  
     5     2    26 1   
     6     3     4 1   
     7     3    15 ar  
     8     3    18 ar  
     9     4    27 1   
    10     4    28 1   
    11     4    29 1   
    12     5    10 1   
    13     5    30 1   
    14     5    31 1   
    15     5    32 1   
    16     6     7 1   
    17     6    14 ar  
    18     6    16 ar  
    19     7     8 1   
    20     7    22 1   
    21     7    33 1   
    22     8     9 1   
    23     8    13 1   
    24     8    34 1   
    25     9    10 1   
    26     9    23 1   
    27     9    35 1   
    28    10    11 1   
    29    10    20 1   
    30    11    12 2   
    31    11    36 1   
    32    12    13 1   
    33    12    37 1   
    34    13    24 1   
    35    13    38 1   
    36    14    39 1   
    37    15    21 ar  
    38    16    21 ar  
    39    16    25 1   
    40    17    18 ar  
    41    17    40 1   
    42    18    41 1   
    43    19    25 1   
    44    19    42 1   
    45    19    43 1   
    46    19    44 1   
    47    20    45 1   
    48    20    46 1   
    49    20    47 1   
    50    22    48 1   
    51    23    49 1   
    52    24    50 1   
@<TRIPOS>SUBSTRUCTURE
     1 NUL         1 TEMP              0 ****  ****    0 ROOT
