@<TRIPOS>MOLECULE
NUM
   32    33     1     0     0
SMALL
bcc


@<TRIPOS>ATOM
      1 N1          -1.0690     0.0680    -0.0920 ns         1 NUM      -0.556900
      2 C4           2.6480     0.6730     0.0730 ca         1 NUM      -0.121300
      3 C5           1.1810     1.0000     0.0830 c3         1 NUM      -0.041100
      4 C6           0.3400    -0.2580    -0.1070 c3         1 NUM       0.107000
      5 C7          -2.0260    -0.8610    -0.0480 c          1 NUM       0.570600
      6 C8          -3.4290    -0.3220    -0.0430 ca         1 NUM       0.353800
      7 C10         -5.7840    -0.6690     0.0280 ca         1 NUM      -0.100000
      8 C13          3.3500     0.4660     1.2580 ca         1 NUM      -0.082500
      9 C1           5.3670    -0.0360     0.0480 ca         1 NUM       0.141100
     10 C11         -5.9420     0.7050    -0.0410 ca         1 NUM      -0.230300
     11 C12         -4.8030     1.4980    -0.1060 ca         1 NUM       0.401200
     12 C14          4.6920     0.1170     1.2560 ca         1 NUM      -0.192000
     13 C2           4.6820     0.1680    -1.1470 ca         1 NUM      -0.192000
     14 C3           3.3400     0.5180    -1.1250 ca         1 NUM      -0.082500
     15 C9          -4.5020    -1.1990     0.0250 ca         1 NUM      -0.187300
     16 N2          -3.5770     0.9980    -0.1070 nb         1 NUM      -0.680000
     17 O1           6.6720    -0.3780     0.0910 oh         1 NUM      -0.495100
     18 O2          -1.8090    -2.0660    -0.0100 o          1 NUM      -0.609100
     19 H1          -1.3600     1.0330    -0.1410 hn         1 NUM       0.340500
     20 H2           0.9080     1.4740     1.0290 hc         1 NUM       0.051200
     21 H3           0.9510     1.7160    -0.7120 hc         1 NUM       0.051200
     22 H4           0.5590    -0.9730     0.6890 h1         1 NUM       0.054700
     23 H5           0.6090    -0.7400    -1.0520 h1         1 NUM       0.054700
     24 H6          -6.6440    -1.3230     0.0810 ha         1 NUM       0.142000
     25 H7           2.8410     0.5830     2.2070 ha         1 NUM       0.131500
     26 H8          -6.9220     1.1610    -0.0430 ha         1 NUM       0.144000
     27 H9          -4.8880     2.5770    -0.1600 h4         1 NUM       0.021100
     28 H10          5.2170    -0.0380     2.1900 ha         1 NUM       0.139000
     29 H11          5.1930     0.0560    -2.0970 ha         1 NUM       0.139000
     30 H12          2.8260     0.6770    -2.0660 ha         1 NUM       0.131500
     31 H13         -4.3390    -2.2660     0.0760 ha         1 NUM       0.168000
     32 H14          7.0220    -0.4790    -0.8010 ho         1 NUM       0.426000
@<TRIPOS>BOND
     1     1     4 1   
     2     1     5 1   
     3     1    19 1   
     4     2     3 1   
     5     2     8 ar  
     6     2    14 ar  
     7     3     4 1   
     8     3    20 1   
     9     3    21 1   
    10     4    22 1   
    11     4    23 1   
    12     5     6 1   
    13     5    18 2   
    14     6    15 ar  
    15     6    16 ar  
    16     7    10 ar  
    17     7    15 ar  
    18     7    24 1   
    19     8    12 ar  
    20     8    25 1   
    21     9    12 ar  
    22     9    13 ar  
    23     9    17 1   
    24    10    11 ar  
    25    10    26 1   
    26    11    16 ar  
    27    11    27 1   
    28    12    28 1   
    29    13    14 ar  
    30    13    29 1   
    31    14    30 1   
    32    15    31 1   
    33    17    32 1   
@<TRIPOS>SUBSTRUCTURE
     1 NUM         1 TEMP              0 ****  ****    0 ROOT
