@<TRIPOS>MOLECULE
NUM
   32    33     1     0     0
SMALL
No Charge or Current Charge


@<TRIPOS>ATOM
      1 N1          -1.0640     0.0300    -0.0030 ns         1 NUM      -0.489900
      2 C4           2.7260     0.6350     0.0360 ca         1 NUM      -0.121300
      3 C5           1.2410     0.9720     0.0260 c3         1 NUM      -0.041100
      4 C6           0.3630    -0.2930     0.0060 c3         1 NUM       0.107000
      5 C7          -2.0860    -0.9000    -0.0300 c          1 NUM       0.503600
      6 C8          -3.5070    -0.3200    -0.0340 ca         1 NUM       0.288500
      7 C10         -5.9200    -0.6660    -0.0650 ca         1 NUM      -0.082000
      8 C13          3.4090     0.4670     1.2570 ca         1 NUM      -0.064500
      9 C1           5.4710    -0.0030     0.0530 ca         1 NUM       0.141100
     10 C11         -6.0720     0.7290    -0.0430 ca         1 NUM      -0.147000
     11 C12         -4.9270     1.5420    -0.0170 ca         1 NUM       0.335900
     12 C14          4.7780     0.1500     1.2630 ca         1 NUM      -0.174000
     13 C2           4.7970     0.1610    -1.1680 ca         1 NUM      -0.174000
     14 C3           3.4260     0.4780    -1.1770 ca         1 NUM      -0.064500
     15 C9          -4.6180    -1.1930    -0.0610 ca         1 NUM      -0.104000
     16 N2          -3.6700     1.0400    -0.0120 nb         1 NUM      -0.680000
     17 O1           6.7980    -0.3110     0.0700 oh         1 NUM      -0.534100
     18 O2          -1.8440    -2.1040    -0.0480 o          1 NUM      -0.609100
     19 H1          -1.3570     1.0030     0.0110 hn         1 NUM       0.340500
     20 H2           0.9850     1.5730     0.9080 hc         1 NUM       0.051200
     21 H3           1.0000     1.5900    -0.8470 hc         1 NUM       0.051200
     22 H4           0.5830    -0.9040     0.8910 h1         1 NUM       0.054700
     23 H5           0.5980    -0.8860    -0.8880 h1         1 NUM       0.054700
     24 H6          -6.7880    -1.3220    -0.0860 ha         1 NUM       0.124000
     25 H7           2.8790     0.5810     2.2000 ha         1 NUM       0.113500
     26 H8          -7.0600     1.1820    -0.0450 ha         1 NUM       0.126000
     27 H9          -5.0170     2.6270     0.0010 h4         1 NUM       0.021100
     28 H10          5.3010     0.0220     2.2070 ha         1 NUM       0.121000
     29 H11          5.3250     0.0430    -2.1110 ha         1 NUM       0.121000
     30 H12          2.9090     0.6020    -2.1260 ha         1 NUM       0.113500
     31 H13         -4.4670    -2.2690    -0.0780 ha         1 NUM       0.150000
     32 H14          7.1130    -0.3770    -0.8570 ho         1 NUM       0.465000
@<TRIPOS>BOND
     1     1     4 1   
     2     1     5 1   
     3     1    19 1   
     4     2     3 1   
     5     2     8 ar  
     6     2    14 ar  
     7     3     4 1   
     8     3    20 1   
     9     3    21 1   
    10     4    22 1   
    11     4    23 1   
    12     5     6 1   
    13     5    18 2   
    14     6    15 ar  
    15     6    16 ar  
    16     7    10 ar  
    17     7    15 ar  
    18     7    24 1   
    19     8    12 ar  
    20     8    25 1   
    21     9    12 ar  
    22     9    13 ar  
    23     9    17 1   
    24    10    11 ar  
    25    10    26 1   
    26    11    16 ar  
    27    11    27 1   
    28    12    28 1   
    29    13    14 ar  
    30    13    29 1   
    31    14    30 1   
    32    15    31 1   
    33    17    32 1   
@<TRIPOS>SUBSTRUCTURE
     1 NUM         1 TEMP              0 ****  ****    0 ROOT
