@<TRIPOS>MOLECULE
NUN
   40    42     1     0     0
SMALL
No Charge or Current Charge


@<TRIPOS>ATOM
      1 C13        127.0340    -7.3830    91.6610 ca         1 NUN      -0.074000
      2 C15        127.7760    -9.4060    90.5290 ca         1 NUN      -0.017000
      3 C17        128.5280   -11.4130    89.3650 ca         1 NUN      -0.091000
      4 C20        127.3440   -10.1910    91.6270 ca         1 NUN      -0.036000
      5 C21        126.7580    -9.5650    92.7570 ca         1 NUN       0.080000
      6 C01        129.5430   -12.9890    96.9170 c3         1 NUN      -0.081767
      7 C02        129.4230   -11.5600    96.3150 c3         1 NUN      -0.142000
      8 C03        130.6560   -10.7240    96.7690 c3         1 NUN      -0.081767
      9 C04        129.4350   -11.6500    94.7630 c3         1 NUN      -0.081767
     10 C05        128.0940   -10.8870    96.8010 c          1 NUN       0.587100
     11 C07        126.7760   -11.6650    96.5860 c3         1 NUN      -0.088400
     12 C09        125.8020    -9.5980    94.8720 ca         1 NUN       0.240300
     13 C11        126.0230    -7.5460    93.8800 ca         1 NUN       0.140900
     14 C12        126.6090    -8.1560    92.7550 ca         1 NUN      -0.154000
     15 C14        127.6190    -8.0090    90.5520 ca         1 NUN      -0.100000
     16 C16        128.3650   -10.0190    89.4070 ca         1 NUN      -0.109000
     17 C18        128.1000   -12.1990    90.4450 ca         1 NUN      -0.120000
     18 C19        127.5100   -11.5960    91.5690 ca         1 NUN      -0.066000
     19 N10        125.6190    -8.2660    94.9420 nb         1 NUN      -0.160000
     20 N22        126.3440   -10.2710    93.8350 nb         1 NUN      -0.199000
     21 O06        128.0890    -9.7930    97.3560 o          1 NUN      -0.493100
     22 S08        125.3090   -10.5570    96.2970 ss         1 NUN      -0.253300
     23 H1         126.9150    -6.3020    91.6710 ha         1 NUN       0.119000
     24 H2         128.9840   -11.8820    88.4960 ha         1 NUN       0.115000
     25 H3         128.7400   -13.6470    96.5640 hc         1 NUN       0.040478
     26 H4         130.4960   -13.4530    96.6350 hc         1 NUN       0.040478
     27 H5         129.4970   -12.9550    98.0130 hc         1 NUN       0.040478
     28 H6         130.6900   -10.6350    97.8620 hc         1 NUN       0.040478
     29 H7         131.5920   -11.1930    96.4430 hc         1 NUN       0.040478
     30 H8         130.6250    -9.7120    96.3460 hc         1 NUN       0.040478
     31 H9         128.6420   -12.3060    94.3880 hc         1 NUN       0.040478
     32 H10        129.2990   -10.6580    94.3140 hc         1 NUN       0.040478
     33 H11        130.3900   -12.0530    94.4030 hc         1 NUN       0.040478
     34 H12        126.6030   -12.2820    97.4760 h1         1 NUN       0.097700
     35 H13        126.8880   -12.3340    95.7270 h1         1 NUN       0.097700
     36 H14        125.8800    -6.4680    93.9360 h4         1 NUN       0.026100
     37 H15        127.9490    -7.4060    89.7090 ha         1 NUN       0.118000
     38 H16        128.6970    -9.4160    88.5650 ha         1 NUN       0.116000
     39 H17        128.2230   -13.2800    90.4120 ha         1 NUN       0.115000
     40 H18        127.1820   -12.2310    92.3880 ha         1 NUN       0.130000
@<TRIPOS>BOND
     1     1    14 ar  
     2     1    15 ar  
     3     1    23 1   
     4     2     4 ar  
     5     2    15 ar  
     6     2    16 ar  
     7     3    16 ar  
     8     3    17 ar  
     9     3    24 1   
    10     4     5 ar  
    11     4    18 ar  
    12     5    14 ar  
    13     5    20 ar  
    14     6     7 1   
    15     6    25 1   
    16     6    26 1   
    17     6    27 1   
    18     7     8 1   
    19     7     9 1   
    20     7    10 1   
    21     8    28 1   
    22     8    29 1   
    23     8    30 1   
    24     9    31 1   
    25     9    32 1   
    26     9    33 1   
    27    10    11 1   
    28    10    21 2   
    29    11    22 1   
    30    11    34 1   
    31    11    35 1   
    32    12    19 ar  
    33    12    20 ar  
    34    12    22 1   
    35    13    14 ar  
    36    13    19 ar  
    37    13    36 1   
    38    15    37 1   
    39    16    38 1   
    40    17    18 ar  
    41    17    39 1   
    42    18    40 1   
@<TRIPOS>SUBSTRUCTURE
     1 NUN         1 TEMP              0 ****  ****    0 ROOT
