@<TRIPOS>MOLECULE
NUN
   40    42     1     0     0
SMALL
abcg2


@<TRIPOS>ATOM
      1 C13        126.0780    -7.3290    91.2900 ca         1 NUN      -0.074000
      2 C15        127.6620    -8.9920    90.5070 ca         1 NUN      -0.017000
      3 C17        129.2520   -10.6170    89.6900 ca         1 NUN      -0.091000
      4 C20        127.6160    -9.6740    91.7420 ca         1 NUN      -0.036000
      5 C21        126.7620    -9.1610    92.7790 ca         1 NUN       0.080000
      6 C01        129.6440   -12.5530    97.7300 c3         1 NUN      -0.081767
      7 C02        129.4350   -12.1470    96.2610 c3         1 NUN      -0.142000
      8 C03        130.7530   -11.6370    95.6790 c3         1 NUN      -0.081767
      9 C04        128.9620   -13.3630    95.4620 c3         1 NUN      -0.081767
     10 C05        128.4040   -11.0200    96.2720 c          1 NUN       0.587100
     11 C07        126.9410   -11.4270    96.2620 c3         1 NUN      -0.088400
     12 C09        125.9250    -9.2860    94.8780 ca         1 NUN       0.240300
     13 C11        125.2140    -7.5610    93.6170 ca         1 NUN       0.140900
     14 C12        126.0110    -7.9980    92.5460 ca         1 NUN      -0.154000
     15 C14        126.8740    -7.8120    90.3080 ca         1 NUN      -0.100000
     16 C16        128.4950    -9.4890    89.4870 ca         1 NUN      -0.109000
     17 C18        129.2070   -11.2890    90.9210 ca         1 NUN      -0.120000
     18 C19        128.4000   -10.8240    91.9310 ca         1 NUN      -0.066000
     19 N10        125.1650    -8.1830    94.7690 nb         1 NUN      -0.160000
     20 N22        126.6980    -9.7960    93.9590 nb         1 NUN      -0.199000
     21 O06        128.7300    -9.8610    96.3320 o          1 NUN      -0.493100
     22 S08        125.7950   -10.0570    96.4470 ss         1 NUN      -0.253300
     23 H1         125.4850    -6.4350    91.1390 ha         1 NUN       0.119000
     24 H2         129.8890   -10.9900    88.8980 ha         1 NUN       0.115000
     25 H3         128.7270   -12.9270    98.1880 hc         1 NUN       0.040478
     26 H4         130.3870   -13.3500    97.7840 hc         1 NUN       0.040478
     27 H5         130.0070   -11.7160    98.3280 hc         1 NUN       0.040478
     28 H6         131.1550   -10.8000    96.2470 hc         1 NUN       0.040478
     29 H7         131.4930   -12.4380    95.6970 hc         1 NUN       0.040478
     30 H8         130.6340   -11.3190    94.6410 hc         1 NUN       0.040478
     31 H9         128.0760   -13.8320    95.8930 hc         1 NUN       0.040478
     32 H10        128.7390   -13.1060    94.4250 hc         1 NUN       0.040478
     33 H11        129.7500   -14.1170    95.4500 hc         1 NUN       0.040478
     34 H12        126.7360   -12.1140    97.0880 h1         1 NUN       0.097700
     35 H13        126.7120   -11.9730    95.3460 h1         1 NUN       0.097700
     36 H14        124.6050    -6.6680    93.5100 h4         1 NUN       0.026100
     37 H15        126.9300    -7.3100    89.3500 ha         1 NUN       0.118000
     38 H16        128.5300    -8.9690    88.5370 ha         1 NUN       0.116000
     39 H17        129.8080   -12.1760    91.0730 ha         1 NUN       0.115000
     40 H18        128.3620   -11.3410    92.8800 ha         1 NUN       0.130000
@<TRIPOS>BOND
     1     1    14 ar  
     2     1    15 ar  
     3     1    23 1   
     4     2     4 ar  
     5     2    15 ar  
     6     2    16 ar  
     7     3    16 ar  
     8     3    17 ar  
     9     3    24 1   
    10     4     5 ar  
    11     4    18 ar  
    12     5    14 ar  
    13     5    20 ar  
    14     6     7 1   
    15     6    25 1   
    16     6    26 1   
    17     6    27 1   
    18     7     8 1   
    19     7     9 1   
    20     7    10 1   
    21     8    28 1   
    22     8    29 1   
    23     8    30 1   
    24     9    31 1   
    25     9    32 1   
    26     9    33 1   
    27    10    11 1   
    28    10    21 2   
    29    11    22 1   
    30    11    34 1   
    31    11    35 1   
    32    12    19 ar  
    33    12    20 ar  
    34    12    22 1   
    35    13    14 ar  
    36    13    19 ar  
    37    13    36 1   
    38    15    37 1   
    39    16    38 1   
    40    17    18 ar  
    41    17    39 1   
    42    18    40 1   
@<TRIPOS>SUBSTRUCTURE
     1 NUN         1 TEMP              0 ****  ****    0 ROOT
