@<TRIPOS>MOLECULE
NUO
   51    53     1     0     0
SMALL
bcc


@<TRIPOS>ATOM
      1 O1          17.8960   -25.9960    -1.8300 o          1 NUO      -0.570100
      2 C1          18.8670   -26.2030    -2.5340 c          1 NUO       0.661100
      3 C2          19.0880   -27.5220    -3.2600 c3         1 NUO      -0.055000
      4 N1          19.8690   -25.3300    -2.7000 ns         1 NUO      -0.578900
      5 C3          19.8870   -24.0410    -2.0360 c3         1 NUO       0.107000
      6 C4          21.1320   -23.2420    -2.3900 c6         1 NUO      -0.077700
      7 C5          21.0330   -21.8410    -1.7880 c6         1 NUO      -0.093900
      8 C6          22.2900   -21.0330    -2.0690 c6         1 NUO       0.104000
      9 N2          23.4720   -21.7260    -1.5860 n          1 NUO      -0.465800
     10 C7          24.3580   -21.2880    -0.6690 c          1 NUO       0.687100
     11 O2          25.4050   -21.8850    -0.4490 o          1 NUO      -0.608100
     12 C8          24.0190   -20.0020     0.1080 cy         1 NUO       0.143200
     13 N3          22.7130   -20.0690     0.6990 nu         1 NUO      -0.769600
     14 C9          22.3830   -20.8920     1.7480 ca         1 NUO       0.177600
     15 C10         23.2300   -21.9020     2.2240 ca         1 NUO      -0.203000
     16 C11         22.8260   -22.7230     3.2690 ca         1 NUO      -0.087500
     17 C12         21.5880   -22.5660     3.8750 ca         1 NUO      -0.176000
     18 C13         20.7470   -21.5600     3.4110 ca         1 NUO      -0.087500
     19 C14         21.1310   -20.7380     2.3680 ca         1 NUO      -0.203000
     20 C15         24.2760   -18.7510    -0.7760 cy         1 NUO      -0.092400
     21 C16         25.6730   -18.6250    -0.1480 cy         1 NUO      -0.089400
     22 C17         25.2030   -19.5360     0.9960 cy         1 NUO      -0.092400
     23 C18         23.6380   -23.0310    -2.2060 c6         1 NUO       0.104000
     24 C19         22.4250   -23.9090    -1.9220 c6         1 NUO      -0.093900
     25 H1          19.6040   -27.3860    -4.2100 h1         1 NUO       0.076200
     26 H2          19.6970   -28.1780    -2.6370 h1         1 NUO       0.076200
     27 H4          20.5930   -25.5350    -3.3700 hn         1 NUO       0.313500
     28 H5          18.9990   -23.4690    -2.3200 h1         1 NUO       0.056700
     29 H6          19.8420   -24.1850    -0.9520 h1         1 NUO       0.056700
     30 H7          21.1750   -23.1350    -3.4830 hc         1 NUO       0.045700
     31 H8          20.1710   -21.3120    -2.2020 hc         1 NUO       0.055200
     32 H9          20.8850   -21.9100    -0.7060 hc         1 NUO       0.055200
     33 H10         22.4030   -20.8990    -3.1510 h1         1 NUO       0.052700
     34 H11         22.2030   -20.0430    -1.6400 h1         1 NUO       0.052700
     35 H12         22.1570   -19.2330     0.6170 hn         1 NUO       0.420800
     36 H13         24.2090   -22.0590     1.7950 ha         1 NUO       0.135000
     37 H14         23.5020   -23.4950     3.6150 ha         1 NUO       0.127500
     38 H15         21.2850   -23.2080     4.6900 ha         1 NUO       0.132000
     39 H16         19.7750   -21.4130     3.8660 ha         1 NUO       0.127500
     40 H17         20.4580   -19.9630     2.0170 ha         1 NUO       0.135000
     41 H18         23.6210   -17.9300    -0.4790 hc         1 NUO       0.062200
     42 H19         24.2090   -18.8710    -1.8570 hc         1 NUO       0.062200
     43 H20         26.4430   -19.0930    -0.7620 hc         1 NUO       0.060200
     44 H21         26.0040   -17.6220     0.1150 hc         1 NUO       0.060200
     45 H22         25.8960   -20.2850     1.3720 hc         1 NUO       0.062200
     46 H23         24.8200   -18.9550     1.8360 hc         1 NUO       0.062200
     47 H24         24.5450   -23.4980    -1.8340 h1         1 NUO       0.052700
     48 H25         23.7580   -22.9000    -3.2880 h1         1 NUO       0.052700
     49 H26         22.3660   -24.1040    -0.8460 hc         1 NUO       0.055200
     50 H27         22.5770   -24.8740    -2.4110 hc         1 NUO       0.055200
     51 CL1         17.5460   -28.3430    -3.5830 cl         1 NUO      -0.146400
@<TRIPOS>BOND
     1     1     2 2   
     2     2     3 1   
     3     2     4 1   
     4     3    25 1   
     5     3    26 1   
     6     3    51 1   
     7     4     5 1   
     8     4    27 1   
     9     5     6 1   
    10     5    28 1   
    11     5    29 1   
    12     6     7 1   
    13     6    24 1   
    14     6    30 1   
    15     7     8 1   
    16     7    31 1   
    17     7    32 1   
    18     8     9 1   
    19     8    33 1   
    20     8    34 1   
    21     9    10 1   
    22     9    23 1   
    23    10    11 2   
    24    10    12 1   
    25    12    13 1   
    26    12    20 1   
    27    12    22 1   
    28    13    14 1   
    29    13    35 1   
    30    14    15 ar  
    31    14    19 ar  
    32    15    16 ar  
    33    15    36 1   
    34    16    17 ar  
    35    16    37 1   
    36    17    18 ar  
    37    17    38 1   
    38    18    19 ar  
    39    18    39 1   
    40    19    40 1   
    41    20    21 1   
    42    20    41 1   
    43    20    42 1   
    44    21    22 1   
    45    21    43 1   
    46    21    44 1   
    47    22    45 1   
    48    22    46 1   
    49    23    24 1   
    50    23    47 1   
    51    23    48 1   
    52    24    49 1   
    53    24    50 1   
@<TRIPOS>SUBSTRUCTURE
     1 NUO         1 TEMP              0 ****  ****    0 ROOT
