@<TRIPOS>MOLECULE
NUO
   51    53     1     0     0
SMALL
No Charge or Current Charge


@<TRIPOS>ATOM
      1 O1          20.4980   -26.5700    -1.0340 o          1 NUO      -0.570100
      2 C1          19.9730   -26.3960    -2.1260 c          1 NUO       0.594100
      3 C2          19.7240   -27.5280    -3.1370 c3         1 NUO       0.021600
      4 N1          19.5520   -25.1500    -2.5470 ns         1 NUO      -0.511900
      5 C3          19.7030   -23.9060    -1.7820 c3         1 NUO       0.107000
      6 C4          20.9260   -23.0540    -2.2290 c6         1 NUO      -0.077700
      7 C5          20.9570   -21.6940    -1.4770 c6         1 NUO      -0.093900
      8 C6          22.1990   -20.8600    -1.8710 c6         1 NUO       0.104000
      9 N2          23.4490   -21.6330    -1.6260 n          1 NUO      -0.398800
     10 C7          24.4300   -21.3390    -0.6230 c          1 NUO       0.620100
     11 O2          25.3430   -22.1600    -0.5330 o          1 NUO      -0.608100
     12 C8          24.1460   -19.9840     0.2870 cy         1 NUO       0.143200
     13 N3          22.9120   -19.7870     1.0640 nu         1 NUO      -0.963200
     14 C9          22.1880   -20.7210     1.8070 ca         1 NUO       0.316000
     15 C10         22.7150   -21.9870     2.1210 ca         1 NUO      -0.185000
     16 C11         21.9460   -22.9150     2.8460 ca         1 NUO      -0.069500
     17 C12         20.6480   -22.5760     3.2620 ca         1 NUO      -0.158000
     18 C13         20.1210   -21.3100     2.9580 ca         1 NUO      -0.069500
     19 C14         20.8940   -20.3860     2.2330 ca         1 NUO      -0.185000
     20 C15         24.6530   -18.9260    -0.7720 cy         1 NUO      -0.092400
     21 C16         26.1300   -19.1820    -0.3000 cy         1 NUO      -0.089400
     22 C17         25.5470   -19.8430     1.0020 cy         1 NUO      -0.092400
     23 C18         23.4750   -22.8880    -2.4280 c6         1 NUO       0.104000
     24 C19         22.2820   -23.7970    -2.0470 c6         1 NUO      -0.093900
     25 H1          18.6450   -27.6060    -3.3170 h1         1 NUO       0.076200
     26 H2          20.2250   -27.2740    -4.0780 h1         1 NUO       0.076200
     27 H4          19.1230   -25.0980    -3.4650 hn         1 NUO       0.313500
     28 H5          18.7900   -23.3110    -1.9160 h1         1 NUO       0.056700
     29 H6          19.7940   -24.1370    -0.7120 h1         1 NUO       0.056700
     30 H7          20.7850   -22.8490    -3.3000 hc         1 NUO       0.045700
     31 H8          20.0460   -21.1210    -1.6950 hc         1 NUO       0.055200
     32 H9          20.9620   -21.8720    -0.3940 hc         1 NUO       0.055200
     33 H10         22.1420   -20.6210    -2.9430 h1         1 NUO       0.052700
     34 H11         22.1830   -19.8990    -1.3470 h1         1 NUO       0.052700
     35 H12         22.4510   -18.8800     0.9750 hn         1 NUO       0.476000
     36 H13         23.7190   -22.2600     1.8170 ha         1 NUO       0.117000
     37 H14         22.3570   -23.8940     3.0850 ha         1 NUO       0.109500
     38 H15         20.0520   -23.2940     3.8220 ha         1 NUO       0.114000
     39 H16         19.1160   -21.0470     3.2820 ha         1 NUO       0.109500
     40 H17         20.4770   -19.4110     1.9960 ha         1 NUO       0.117000
     41 H18         24.3070   -17.9080    -0.5630 hc         1 NUO       0.062200
     42 H19         24.4590   -19.1240    -1.8320 hc         1 NUO       0.062200
     43 H20         26.7040   -19.8590    -0.9420 hc         1 NUO       0.060200
     44 H21         26.7320   -18.2810    -0.1380 hc         1 NUO       0.060200
     45 H22         26.0410   -20.7520     1.3590 hc         1 NUO       0.062200
     46 H23         25.5190   -19.1500     1.8500 hc         1 NUO       0.062200
     47 H24         24.4130   -23.4430    -2.2940 h1         1 NUO       0.052700
     48 H25         23.4100   -22.6310    -3.4950 h1         1 NUO       0.052700
     49 H26         22.3930   -24.1240    -1.0040 hc         1 NUO       0.055200
     50 H27         22.3090   -24.7030    -2.6660 hc         1 NUO       0.055200
     51 Cl1         20.3270   -29.1700    -2.6050 cl         1 NUO      -0.223000
@<TRIPOS>BOND
     1     1     2 2   
     2     2     3 1   
     3     2     4 1   
     4     3    25 1   
     5     3    26 1   
     6     3    51 1   
     7     4     5 1   
     8     4    27 1   
     9     5     6 1   
    10     5    28 1   
    11     5    29 1   
    12     6     7 1   
    13     6    24 1   
    14     6    30 1   
    15     7     8 1   
    16     7    31 1   
    17     7    32 1   
    18     8     9 1   
    19     8    33 1   
    20     8    34 1   
    21     9    10 1   
    22     9    23 1   
    23    10    11 2   
    24    10    12 1   
    25    12    13 1   
    26    12    20 1   
    27    12    22 1   
    28    13    14 1   
    29    13    35 1   
    30    14    15 ar  
    31    14    19 ar  
    32    15    16 ar  
    33    15    36 1   
    34    16    17 ar  
    35    16    37 1   
    36    17    18 ar  
    37    17    38 1   
    38    18    19 ar  
    39    18    39 1   
    40    19    40 1   
    41    20    21 1   
    42    20    41 1   
    43    20    42 1   
    44    21    22 1   
    45    21    43 1   
    46    21    44 1   
    47    22    45 1   
    48    22    46 1   
    49    23    24 1   
    50    23    47 1   
    51    23    48 1   
    52    24    49 1   
    53    24    50 1   
@<TRIPOS>SUBSTRUCTURE
     1 NUO         1 TEMP              0 ****  ****    0 ROOT
