@<TRIPOS>MOLECULE
NUQ
   32    34     1     0     0
SMALL
No Charge or Current Charge


@<TRIPOS>ATOM
      1 N1          -3.5850     0.3970     0.4170 n          1 NUQ      -0.266000
      2 N3           1.3130    -2.9050     0.0440 na         1 NUQ      -0.293500
      3 C4          -1.0100     0.7480    -0.6840 cc         1 NUQ      -0.076000
      4 C5          -1.9550     1.7430    -0.7830 cd         1 NUQ      -0.328200
      5 C6          -3.3090     1.6260    -0.2210 c          1 NUQ       0.546200
      6 C7          -0.4160    -1.5800     0.1540 cc         1 NUQ       0.338800
      7 C8           0.1930    -3.6300     0.3950 cd         1 NUQ       0.403400
      8 C10          1.9450    -0.4770    -0.0870 ca         1 NUQ      -0.033000
      9 C13          3.9220     1.5410    -0.0450 ca         1 NUQ       0.178000
     10 C15          1.7380     0.7190     0.6360 ca         1 NUQ      -0.073000
     11 F            4.8640     2.5080    -0.0310 f          1 NUQ      -0.175000
     12 C12          4.1580     0.3450    -0.7370 ca         1 NUQ      -0.151500
     13 C11          3.1790    -0.6650    -0.7480 ca         1 NUQ      -0.073000
     14 C14          2.7170     1.7280     0.6470 ca         1 NUQ      -0.151500
     15 C9           0.9500    -1.5710    -0.0790 cd         1 NUQ      -0.148000
     16 N2          -0.8610    -2.8340     0.4710 nc         1 NUQ      -0.682000
     17 C3          -1.3380    -0.4670     0.0150 cc         1 NUQ      -0.239800
     18 C2          -2.6250    -0.6140     0.5120 cd         1 NUQ      -0.001400
     19 O           -4.1300     2.5280    -0.3150 o          1 NUQ      -0.562000
     20 C1          -4.9350     0.1980     0.9920 c3         1 NUQ       0.075300
     21 H2          -0.0450     0.8660    -1.1710 ha         1 NUQ       0.190000
     22 H3          -1.7560     2.6740    -1.3010 ha         1 NUQ       0.208000
     23 H4           0.2240    -4.6970     0.5850 h5         1 NUQ       0.058100
     24 H5           0.8280     0.8610     1.2140 ha         1 NUQ       0.123000
     25 H6           5.0990     0.2010    -1.2620 ha         1 NUQ       0.136500
     26 H7           3.3730    -1.5860    -1.2920 ha         1 NUQ       0.123000
     27 H8           2.5490     2.6480     1.2020 ha         1 NUQ       0.136500
     28 H10         -2.9800    -1.5040     1.0250 h4         1 NUQ       0.214000
     29 H11         -5.6890     0.2840     0.2000 h1         1 NUQ       0.055033
     30 H12         -5.0210    -0.7920     1.4550 h1         1 NUQ       0.055033
     31 H13         -5.1270     0.9630     1.7550 h1         1 NUQ       0.055033
     32 H1           2.2480    -3.2880    -0.0170 hn         1 NUQ       0.356000
@<TRIPOS>BOND
     1     1     5 1   
     2     1    18 1   
     3     1    20 1   
     4     2     7 1   
     5     2    15 1   
     6     2    32 1   
     7     3     4 2   
     8     3    17 1   
     9     3    21 1   
    10     4     5 1   
    11     4    22 1   
    12     5    19 2   
    13     6    15 2   
    14     6    16 1   
    15     6    17 1   
    16     7    16 2   
    17     7    23 1   
    18     8    10 ar  
    19     8    13 ar  
    20     8    15 1   
    21     9    11 1   
    22     9    12 ar  
    23     9    14 ar  
    24    10    14 ar  
    25    10    24 1   
    26    12    13 ar  
    27    12    25 1   
    28    13    26 1   
    29    14    27 1   
    30    17    18 2   
    31    18    28 1   
    32    20    29 1   
    33    20    30 1   
    34    20    31 1   
@<TRIPOS>SUBSTRUCTURE
     1 NUQ         1 TEMP              0 ****  ****    0 ROOT
