@<TRIPOS>MOLECULE
NUQ
   32    34     1     0     0
SMALL
abcg2


@<TRIPOS>ATOM
      1 N1          -3.5060     0.4290     0.3970 n          1 NUQ      -0.266000
      2 N3           1.3270    -2.8980     0.1940 na         1 NUQ      -0.293500
      3 C4          -1.0760     0.6690    -0.8360 cc         1 NUQ      -0.076000
      4 C5          -1.9890     1.6660    -0.9540 cd         1 NUQ      -0.328200
      5 C6          -3.2760     1.5970    -0.3190 c          1 NUQ       0.546200
      6 C7          -0.4150    -1.6010     0.0770 cc         1 NUQ       0.338800
      7 C8           0.2060    -3.6360     0.2630 cd         1 NUQ       0.403400
      8 C10          1.9480    -0.5030     0.0510 ca         1 NUQ      -0.033000
      9 C13          3.8180     1.5360    -0.0040 ca         1 NUQ       0.178000
     10 C15          1.7710     0.6470     0.8230 ca         1 NUQ      -0.073000
     11 F            4.7240     2.5250    -0.0310 f          1 NUQ      -0.175000
     12 C12          4.0360     0.4080    -0.7710 ca         1 NUQ      -0.151500
     13 C11          3.0920    -0.6080    -0.7410 ca         1 NUQ      -0.073000
     14 C14          2.6990     1.6760     0.7940 ca         1 NUQ      -0.151500
     15 C9           0.9640    -1.5820     0.0910 cd         1 NUQ      -0.148000
     16 N2          -0.8640    -2.8890     0.1920 nc         1 NUQ      -0.682000
     17 C3          -1.3530    -0.4890    -0.0630 cc         1 NUQ      -0.239800
     18 C2          -2.5850    -0.5550     0.5180 cd         1 NUQ      -0.001400
     19 O           -4.1430     2.4660    -0.3780 o          1 NUQ      -0.562000
     20 C1          -4.8010     0.2910     1.0480 c3         1 NUQ       0.075300
     21 H2          -0.1280     0.7530    -1.3530 ha         1 NUQ       0.190000
     22 H3          -1.7790     2.5440    -1.5500 ha         1 NUQ       0.208000
     23 H4           0.2260    -4.7110     0.3600 h5         1 NUQ       0.058100
     24 H5           0.9040     0.7370     1.4640 ha         1 NUQ       0.123000
     25 H6           4.9200     0.3250    -1.3890 ha         1 NUQ       0.136500
     26 H7           3.2500    -1.4850    -1.3560 ha         1 NUQ       0.123000
     27 H8           2.5590     2.5650     1.3960 ha         1 NUQ       0.136500
     28 H10         -2.8840    -1.4100     1.1090 h4         1 NUQ       0.214000
     29 H11         -5.6040     0.3630     0.3180 h1         1 NUQ       0.055033
     30 H12         -4.8520    -0.6800     1.5310 h1         1 NUQ       0.055033
     31 H13         -4.9390     1.0670     1.7980 h1         1 NUQ       0.055033
     32 H1           2.2700    -3.2490     0.2650 hn         1 NUQ       0.356000
@<TRIPOS>BOND
     1     1     5 1   
     2     1    18 1   
     3     1    20 1   
     4     2     7 1   
     5     2    15 1   
     6     2    32 1   
     7     3     4 2   
     8     3    17 1   
     9     3    21 1   
    10     4     5 1   
    11     4    22 1   
    12     5    19 2   
    13     6    15 2   
    14     6    16 1   
    15     6    17 1   
    16     7    16 2   
    17     7    23 1   
    18     8    10 ar  
    19     8    13 ar  
    20     8    15 1   
    21     9    11 1   
    22     9    12 ar  
    23     9    14 ar  
    24    10    14 ar  
    25    10    24 1   
    26    12    13 ar  
    27    12    25 1   
    28    13    26 1   
    29    14    27 1   
    30    17    18 2   
    31    18    28 1   
    32    20    29 1   
    33    20    30 1   
    34    20    31 1   
@<TRIPOS>SUBSTRUCTURE
     1 NUQ         1 TEMP              0 ****  ****    0 ROOT
