@<TRIPOS>MOLECULE
NUT
   70    74     1     0     0
SMALL
No Charge or Current Charge


@<TRIPOS>ATOM
      1 O3           1.4220    -0.8300    -1.8370 o          1 NUT      -0.591100
      2 C25          0.9360    -1.1600    -0.7650 c          1 NUT       0.689100
      3 N2           0.6510    -2.5270    -0.5160 n          1 NUT      -0.416800
      4 C29          0.4130    -3.1070     0.8460 c6         1 NUT       0.023000
      5 C28          0.9550    -4.5380     1.1040 c          1 NUT       0.551000
      6 O2           0.7890    -5.1120     2.1690 o          1 NUT      -0.569000
      7 N3           1.6730    -5.1410     0.0960 ns         1 NUT      -0.505900
      8 C27          1.8040    -4.6180    -1.2740 c6         1 NUT       0.089000
      9 C26          0.7310    -3.5530    -1.5880 c6         1 NUT       0.090000
     10 N1           0.6420    -0.1950     0.2180 n          1 NUT      -0.368300
     11 C10          1.1080     1.1220     0.0710 ce         1 NUT       0.554500
     12 C9           2.4790     1.4960    -0.3960 ca         1 NUT      -0.200900
     13 C3           2.6440     2.7070    -1.1000 ca         1 NUT       0.009000
     14 C2           3.9130     3.1150    -1.5370 ca         1 NUT      -0.244000
     15 C5           3.6180     0.7230    -0.0780 ca         1 NUT       0.228100
     16 O1           3.4570    -0.4200     0.6860 os         1 NUT      -0.355100
     17 C6           4.5450    -1.1450     1.2870 c3         1 NUT       0.179300
     18 C8           5.0820    -0.3220     2.4800 c3         1 NUT      -0.109600
     19 C7           3.9750    -2.5030     1.7300 c3         1 NUT      -0.109600
     20 C4           4.8900     1.1380    -0.5300 ca         1 NUT      -0.248000
     21 C1           5.0400     2.3220    -1.2590 ca         1 NUT       0.197100
     22 O            6.3110     2.6690    -1.6660 os         1 NUT      -0.341100
     23 C            6.5770     3.8660    -2.4170 c3         1 NUT       0.148900
     24 C18         -0.6430    -0.2170     0.9280 c5         1 NUT       0.125000
     25 C19         -1.7880    -0.4250    -0.0890 ca         1 NUT      -0.107300
     26 C24         -2.8080    -1.3500     0.2180 ca         1 NUT      -0.084500
     27 C23         -3.8750    -1.5680    -0.6710 ca         1 NUT      -0.103500
     28 C22         -3.9350    -0.8630    -1.8810 ca         1 NUT       0.127000
     29 Cl1         -5.2710    -1.1330    -2.9920 cl         1 NUT      -0.201000
     30 C21         -2.9300     0.0600    -2.2030 ca         1 NUT      -0.103500
     31 C20         -1.8630     0.2790    -1.3150 ca         1 NUT      -0.084500
     32 C11         -0.6150     1.2680     1.4740 c5         1 NUT       0.159800
     33 N            0.3430     2.0220     0.5980 n2         1 NUT      -0.631900
     34 C12         -2.0530     1.8030     1.5570 ca         1 NUT      -0.070300
     35 C17         -2.5330     2.7980     0.6750 ca         1 NUT      -0.086500
     36 C16         -3.8620     3.2480     0.7590 ca         1 NUT      -0.105000
     37 C15         -4.7240     2.7150     1.7290 ca         1 NUT       0.124000
     38 Cl          -6.3880     3.2770     1.8310 cl         1 NUT      -0.207000
     39 C14         -4.2590     1.7350     2.6180 ca         1 NUT      -0.105000
     40 C13         -2.9300     1.2840     2.5340 ca         1 NUT      -0.086500
     41 H1           0.8870    -2.4740     1.6070 h1         1 NUT       0.080200
     42 H2          -0.6670    -3.1470     1.0420 h1         1 NUT       0.080200
     43 H3           2.0410    -6.0630     0.3010 hn         1 NUT       0.319500
     44 H4           2.8030    -4.1710    -1.3780 h1         1 NUT       0.054700
     45 H5           1.7270    -5.4500    -1.9890 h1         1 NUT       0.054700
     46 H6          -0.2480    -4.0450    -1.6740 h1         1 NUT       0.071700
     47 H7           0.9440    -3.0990    -2.5660 h1         1 NUT       0.071700
     48 H9           1.7790     3.3290    -1.3240 ha         1 NUT       0.124000
     49 H10          3.9970     4.0460    -2.0890 ha         1 NUT       0.123000
     50 H11          5.3480    -1.3380     0.5650 h1         1 NUT       0.045700
     51 H12          4.2790    -0.1050     3.1940 hc         1 NUT       0.048867
     52 H13          5.8660    -0.8800     3.0050 hc         1 NUT       0.048867
     53 H14          5.5130     0.6280     2.1460 hc         1 NUT       0.048867
     54 H15          3.5910    -3.0530     0.8630 hc         1 NUT       0.048867
     55 H16          4.7560    -3.1130     2.1990 hc         1 NUT       0.048867
     56 H17          3.1620    -2.3710     2.4520 hc         1 NUT       0.048867
     57 H18          5.7800     0.5570    -0.3220 ha         1 NUT       0.133000
     58 H19          6.2790     4.7570    -1.8490 h1         1 NUT       0.043033
     59 H20          7.6480     3.9470    -2.6380 h1         1 NUT       0.043033
     60 H21          6.0330     3.8580    -3.3700 h1         1 NUT       0.043033
     61 H22         -0.6810    -0.9310     1.7590 h1         1 NUT       0.071700
     62 H23         -2.7820    -1.8990     1.1570 ha         1 NUT       0.123000
     63 H24         -4.6560    -2.2810    -0.4200 ha         1 NUT       0.132500
     64 H25         -2.9790     0.6090    -3.1410 ha         1 NUT       0.132500
     65 H26         -1.1010     1.0050    -1.5860 ha         1 NUT       0.123000
     66 H27         -0.1930     1.2580     2.4900 h1         1 NUT       0.082700
     67 H30         -1.8830     3.2180    -0.0890 ha         1 NUT       0.121000
     68 H31         -4.2240     4.0080     0.0710 ha         1 NUT       0.129000
     69 H32         -4.9270     1.3240     3.3700 ha         1 NUT       0.129000
     70 H33         -2.5830     0.5200     3.2260 ha         1 NUT       0.121000
@<TRIPOS>BOND
     1     1     2 2   
     2     2     3 1   
     3     2    10 1   
     4     3     4 1   
     5     3     9 1   
     6     4     5 1   
     7     4    41 1   
     8     4    42 1   
     9     5     6 2   
    10     5     7 1   
    11     7     8 1   
    12     7    43 1   
    13     8     9 1   
    14     8    44 1   
    15     8    45 1   
    16     9    46 1   
    17     9    47 1   
    18    10    11 1   
    19    10    24 1   
    20    11    12 1   
    21    11    33 2   
    22    12    13 ar  
    23    12    15 ar  
    24    13    14 ar  
    25    13    48 1   
    26    14    21 ar  
    27    14    49 1   
    28    15    16 1   
    29    15    20 ar  
    30    16    17 1   
    31    17    18 1   
    32    17    19 1   
    33    17    50 1   
    34    18    51 1   
    35    18    52 1   
    36    18    53 1   
    37    19    54 1   
    38    19    55 1   
    39    19    56 1   
    40    20    21 ar  
    41    20    57 1   
    42    21    22 1   
    43    22    23 1   
    44    23    58 1   
    45    23    59 1   
    46    23    60 1   
    47    24    25 1   
    48    24    32 1   
    49    24    61 1   
    50    25    26 ar  
    51    25    31 ar  
    52    26    27 ar  
    53    26    62 1   
    54    27    28 ar  
    55    27    63 1   
    56    28    29 1   
    57    28    30 ar  
    58    30    31 ar  
    59    30    64 1   
    60    31    65 1   
    61    32    33 1   
    62    32    34 1   
    63    32    66 1   
    64    34    35 ar  
    65    34    40 ar  
    66    35    36 ar  
    67    35    67 1   
    68    36    37 ar  
    69    36    68 1   
    70    37    38 1   
    71    37    39 ar  
    72    39    40 ar  
    73    39    69 1   
    74    40    70 1   
@<TRIPOS>SUBSTRUCTURE
     1 NUT         1 TEMP              0 ****  ****    0 ROOT
