@<TRIPOS>MOLECULE
NUT
   70    74     1     0     0
SMALL
abcg2


@<TRIPOS>ATOM
      1 O3           1.3720    -0.7290    -1.6560 o          1 NUT      -0.591100
      2 C25          0.9220    -1.1470    -0.6060 c          1 NUT       0.689100
      3 N2           0.6330    -2.4510    -0.3840 n          1 NUT      -0.416800
      4 C29          0.5440    -3.0670     0.9180 c6         1 NUT       0.023000
      5 C28          1.2400    -4.4160     1.0240 c          1 NUT       0.551000
      6 O2           1.2990    -4.9600     2.1180 o          1 NUT      -0.569000
      7 N3           1.7380    -4.9570    -0.0930 ns         1 NUT      -0.505900
      8 C27          1.6900    -4.3670    -1.4170 c6         1 NUT       0.089000
      9 C26          0.5480    -3.3810    -1.4890 c6         1 NUT       0.090000
     10 N1           0.6080    -0.2940     0.4560 n          1 NUT      -0.368300
     11 C10          1.1350     0.9880     0.5700 ce         1 NUT       0.554500
     12 C9           2.4080     1.3990    -0.0400 ca         1 NUT      -0.200900
     13 C3           2.4630     2.6290    -0.6770 ca         1 NUT       0.009000
     14 C2           3.6310     3.1210    -1.2410 ca         1 NUT      -0.244000
     15 C5           3.5840     0.6370     0.0570 ca         1 NUT       0.228100
     16 O1           3.4810    -0.5360     0.7000 os         1 NUT      -0.355100
     17 C6           4.6530    -1.2510     1.1130 c3         1 NUT       0.179300
     18 C8           5.3060    -0.5700     2.3020 c3         1 NUT      -0.109600
     19 C7           4.2030    -2.6590     1.4400 c3         1 NUT      -0.109600
     20 C4           4.7620     1.1200    -0.4930 ca         1 NUT      -0.248000
     21 C1           4.7880     2.3540    -1.1470 ca         1 NUT       0.197100
     22 O            5.9800     2.7160    -1.6470 os         1 NUT      -0.341100
     23 C            6.0880     3.9620    -2.3070 c3         1 NUT       0.148900
     24 C18         -0.7080    -0.3160     1.1110 c5         1 NUT       0.125000
     25 C19         -1.8230    -0.6520     0.1610 ca         1 NUT      -0.107300
     26 C24         -2.7880    -1.5760     0.5370 ca         1 NUT      -0.084500
     27 C23         -3.8580    -1.8780    -0.2930 ca         1 NUT      -0.103500
     28 C22         -3.9520    -1.2420    -1.5180 ca         1 NUT       0.127000
     29 CL1         -5.2820    -1.6060    -2.5700 cl         1 NUT      -0.201000
     30 C21         -3.0010    -0.3160    -1.9200 ca         1 NUT      -0.103500
     31 C20         -1.9420    -0.0250    -1.0770 ca         1 NUT      -0.084500
     32 C11         -0.7510     1.1320     1.7290 c5         1 NUT       0.159800
     33 N            0.4440     1.8000     1.2640 n2         1 NUT      -0.631900
     34 C12         -2.0070     1.9090     1.4310 ca         1 NUT      -0.070300
     35 C17         -2.0220     2.9560     0.5190 ca         1 NUT      -0.086500
     36 C16         -3.1970     3.6360     0.2320 ca         1 NUT      -0.105000
     37 C15         -4.3670     3.2590     0.8680 ca         1 NUT       0.124000
     38 CL          -5.8430     4.1020     0.5150 cl         1 NUT      -0.207000
     39 C14         -4.3780     2.2230     1.7910 ca         1 NUT      -0.105000
     40 C13         -3.1950     1.5600     2.0670 ca         1 NUT      -0.086500
     41 H1           1.0020    -2.4250     1.6700 h1         1 NUT       0.080200
     42 H2          -0.4960    -3.2380     1.2160 h1         1 NUT       0.080200
     43 H3           2.2260    -5.8350     0.0110 hn         1 NUT       0.319500
     44 H4           2.6360    -3.8710    -1.6550 h1         1 NUT       0.054700
     45 H5           1.5410    -5.1610    -2.1480 h1         1 NUT       0.054700
     46 H6          -0.4080    -3.9090    -1.4290 h1         1 NUT       0.071700
     47 H7           0.5720    -2.8450    -2.4330 h1         1 NUT       0.071700
     48 H9           1.5600     3.2210    -0.7440 ha         1 NUT       0.124000
     49 H10          3.6150     4.0800    -1.7390 ha         1 NUT       0.123000
     50 H11          5.3610    -1.3070     0.2800 h1         1 NUT       0.045700
     51 H12          4.6200    -0.5320     3.1500 hc         1 NUT       0.048867
     52 H13          6.1890    -1.1310     2.6060 hc         1 NUT       0.048867
     53 H14          5.6260     0.4470     2.0750 hc         1 NUT       0.048867
     54 H15          3.7590    -3.1420     0.5700 hc         1 NUT       0.048867
     55 H16          5.0610    -3.2560     1.7470 hc         1 NUT       0.048867
     56 H17          3.4800    -2.6690     2.2570 hc         1 NUT       0.048867
     57 H18          5.6880     0.5640    -0.4280 ha         1 NUT       0.133000
     58 H19          5.8530     4.7960    -1.6410 h1         1 NUT       0.043033
     59 H20          7.1230     4.0510    -2.6290 h1         1 NUT       0.043033
     60 H21          5.4400     4.0160    -3.1850 h1         1 NUT       0.043033
     61 H22         -0.7250    -1.0320     1.9330 h1         1 NUT       0.071700
     62 H23         -2.7160    -2.0700     1.5000 ha         1 NUT       0.123000
     63 H24         -4.6020    -2.6000     0.0150 ha         1 NUT       0.132500
     64 H25         -3.0850     0.1780    -2.8790 ha         1 NUT       0.132500
     65 H26         -1.2120     0.7060    -1.4000 ha         1 NUT       0.123000
     66 H27         -0.6810     1.0250     2.8160 h1         1 NUT       0.082700
     67 H30         -1.1090     3.2540     0.0210 ha         1 NUT       0.121000
     68 H31         -3.1960     4.4490    -0.4810 ha         1 NUT       0.129000
     69 H32         -5.2940     1.9390     2.2910 ha         1 NUT       0.129000
     70 H33         -3.2020     0.7550     2.7920 ha         1 NUT       0.121000
@<TRIPOS>BOND
     1     1     2 2   
     2     2     3 1   
     3     2    10 1   
     4     3     4 1   
     5     3     9 1   
     6     4     5 1   
     7     4    41 1   
     8     4    42 1   
     9     5     6 2   
    10     5     7 1   
    11     7     8 1   
    12     7    43 1   
    13     8     9 1   
    14     8    44 1   
    15     8    45 1   
    16     9    46 1   
    17     9    47 1   
    18    10    11 1   
    19    10    24 1   
    20    11    12 1   
    21    11    33 2   
    22    12    13 ar  
    23    12    15 ar  
    24    13    14 ar  
    25    13    48 1   
    26    14    21 ar  
    27    14    49 1   
    28    15    16 1   
    29    15    20 ar  
    30    16    17 1   
    31    17    18 1   
    32    17    19 1   
    33    17    50 1   
    34    18    51 1   
    35    18    52 1   
    36    18    53 1   
    37    19    54 1   
    38    19    55 1   
    39    19    56 1   
    40    20    21 ar  
    41    20    57 1   
    42    21    22 1   
    43    22    23 1   
    44    23    58 1   
    45    23    59 1   
    46    23    60 1   
    47    24    25 1   
    48    24    32 1   
    49    24    61 1   
    50    25    26 ar  
    51    25    31 ar  
    52    26    27 ar  
    53    26    62 1   
    54    27    28 ar  
    55    27    63 1   
    56    28    29 1   
    57    28    30 ar  
    58    30    31 ar  
    59    30    64 1   
    60    31    65 1   
    61    32    33 1   
    62    32    34 1   
    63    32    66 1   
    64    34    35 ar  
    65    34    40 ar  
    66    35    36 ar  
    67    35    67 1   
    68    36    37 ar  
    69    36    68 1   
    70    37    38 1   
    71    37    39 ar  
    72    39    40 ar  
    73    39    69 1   
    74    40    70 1   
@<TRIPOS>SUBSTRUCTURE
     1 NUT         1 TEMP              0 ****  ****    0 ROOT
