@<TRIPOS>MOLECULE
NUU
   41    43     1     0     0
SMALL
abcg2


@<TRIPOS>ATOM
      1 C13        -31.4030     2.0940   -12.1740 c6         1 NUU      -0.017100
      2 C15        -33.2180     3.6060   -12.9950 ca         1 NUU       0.376300
      3 C17        -35.2700     4.4730   -13.4940 ca         1 NUU       0.356900
      4 C20        -33.1630     4.3280   -11.7950 ca         1 NUU      -0.210500
      5 C21        -31.9830     4.1950   -10.9370 ca         1 NUU       0.199500
      6 C01        -35.5680     6.9620    -7.6370 c3         1 NUU      -0.081767
      7 C02        -34.2450     7.7260    -7.6710 c3         1 NUU      -0.144000
      8 C03        -34.2060     8.6300    -8.9070 c3         1 NUU      -0.081767
      9 C04        -34.1200     8.5910    -6.4060 c3         1 NUU      -0.081767
     10 C05        -33.0760     6.7440    -7.6460 c          1 NUU       0.586100
     11 C07        -31.7400     7.2640    -8.1490 c3         1 NUU      -0.088400
     12 C09        -30.7170     4.9480    -9.2250 ca         1 NUU       0.236300
     13 C11        -30.0320     3.0700   -10.2570 ca         1 NUU       0.123900
     14 C12        -31.1160     3.1180   -11.1200 ca         1 NUU      -0.186300
     15 C14        -32.0530     2.7450   -13.3900 c6         1 NUU      -0.132700
     16 C18        -35.3110     5.2260   -12.3300 ca         1 NUU      -0.179000
     17 C19        -34.2330     5.1530   -11.4660 ca         1 NUU      -0.026000
     18 N10        -29.8200     3.9740    -9.3110 nb         1 NUU      -0.157000
     19 N16        -34.2520     3.6850   -13.8230 nb         1 NUU      -0.676000
     20 N22        -31.7790     5.1060    -9.9880 nb         1 NUU      -0.198000
     21 O06        -33.1880     5.6260    -7.2100 o          1 NUU      -0.493100
     22 S08        -30.3760     6.1120    -7.9550 ss         1 NUU      -0.256300
     23 H1         -32.0740     1.3320   -11.7630 hc         1 NUU       0.059200
     24 H2         -30.4870     1.5790   -12.4640 hc         1 NUU       0.059200
     25 H3         -36.0970     4.5050   -14.1940 h4         1 NUU       0.021100
     26 H4         -35.6610     6.3440    -6.7450 hc         1 NUU       0.040700
     27 H5         -36.3980     7.6690    -7.6400 hc         1 NUU       0.040700
     28 H6         -35.6800     6.3170    -8.5110 hc         1 NUU       0.040700
     29 H7         -35.0870     9.2740    -8.9100 hc         1 NUU       0.040700
     30 H8         -33.3300     9.2800    -8.9200 hc         1 NUU       0.040700
     31 H9         -34.2150     8.0530    -9.8330 hc         1 NUU       0.040700
     32 H10        -34.1580     7.9850    -5.5000 hc         1 NUU       0.040700
     33 H11        -33.1940     9.1680    -6.3930 hc         1 NUU       0.040700
     34 H12        -34.9480     9.3010    -6.3700 hc         1 NUU       0.040700
     35 H13        -31.4590     8.1660    -7.5990 h1         1 NUU       0.098200
     36 H14        -31.8230     7.5570    -9.1950 h1         1 NUU       0.098200
     37 H15        -29.3060     2.2670   -10.3350 h4         1 NUU       0.026100
     38 H16        -32.3820     1.9890   -14.1020 hc         1 NUU       0.069700
     39 H17        -31.3170     3.3700   -13.9070 hc         1 NUU       0.069700
     40 H18        -36.1660     5.8500   -12.1090 ha         1 NUU       0.126000
     41 H19        -34.2210     5.7180   -10.5440 ha         1 NUU       0.136000
@<TRIPOS>BOND
     1     1    14 1   
     2     1    15 1   
     3     1    23 1   
     4     1    24 1   
     5     2     4 ar  
     6     2    15 1   
     7     2    19 ar  
     8     3    16 ar  
     9     3    19 ar  
    10     3    25 1   
    11     4     5 1   
    12     4    17 ar  
    13     5    14 ar  
    14     5    20 ar  
    15     6     7 1   
    16     6    26 1   
    17     6    27 1   
    18     6    28 1   
    19     7     8 1   
    20     7     9 1   
    21     7    10 1   
    22     8    29 1   
    23     8    30 1   
    24     8    31 1   
    25     9    32 1   
    26     9    33 1   
    27     9    34 1   
    28    10    11 1   
    29    10    21 2   
    30    11    22 1   
    31    11    35 1   
    32    11    36 1   
    33    12    18 ar  
    34    12    20 ar  
    35    12    22 1   
    36    13    14 ar  
    37    13    18 ar  
    38    13    37 1   
    39    15    38 1   
    40    15    39 1   
    41    16    17 ar  
    42    16    40 1   
    43    17    41 1   
@<TRIPOS>SUBSTRUCTURE
     1 NUU         1 TEMP              0 ****  ****    0 ROOT
