@<TRIPOS>MOLECULE
NUU
   41    43     1     0     0
SMALL
No Charge or Current Charge


@<TRIPOS>ATOM
      1 C13        -32.3740     2.2030   -11.5260 c6         1 NUU      -0.017100
      2 C15        -33.3670     3.9270   -13.1030 ca         1 NUU       0.376300
      3 C17        -34.6940     5.3430   -14.3680 ca         1 NUU       0.356900
      4 C20        -32.9360     4.9800   -12.2640 ca         1 NUU      -0.210500
      5 C21        -32.0380     4.7340   -11.1960 ca         1 NUU       0.199500
      6 C01        -34.8600     6.2050    -6.3840 c3         1 NUU      -0.081767
      7 C02        -34.0460     7.0560    -7.4030 c3         1 NUU      -0.144000
      8 C03        -34.4430     6.6130    -8.8400 c3         1 NUU      -0.081767
      9 C04        -34.4140     8.5540    -7.2030 c3         1 NUU      -0.081767
     10 C05        -32.5080     6.8520    -7.1850 c          1 NUU       0.586100
     11 C07        -31.5420     7.7320    -8.0080 c3         1 NUU      -0.088400
     12 C09        -30.6580     5.4560    -9.4770 ca         1 NUU       0.236300
     13 C11        -30.8140     3.1950    -9.7830 ca         1 NUU       0.123900
     14 C12        -31.7100     3.3990   -10.8490 ca         1 NUU      -0.186300
     15 C14        -32.7980     2.5220   -12.9680 c6         1 NUU      -0.132700
     16 C18        -34.3100     6.4550   -13.6060 ca         1 NUU      -0.179000
     17 C19        -33.4120     6.2820   -12.5420 ca         1 NUU      -0.026000
     18 N10        -30.2810     4.2210    -9.0980 nb         1 NUU      -0.157000
     19 N16        -34.2240     4.0990   -14.1340 nb         1 NUU      -0.676000
     20 N22        -31.5050     5.7520   -10.4830 nb         1 NUU      -0.198000
     21 O06        -32.0730     6.0390    -6.3760 o          1 NUU      -0.493100
     22 S08        -30.0060     6.8260    -8.5360 ss         1 NUU      -0.256300
     23 H1         -33.2610     1.9180   -10.9430 hc         1 NUU       0.059200
     24 H2         -31.7050     1.3300   -11.5180 hc         1 NUU       0.059200
     25 H3         -35.3880     5.4530   -15.2010 h4         1 NUU       0.021100
     26 H4         -34.6150     6.4850    -5.3520 hc         1 NUU       0.040700
     27 H5         -35.9390     6.3490    -6.5230 hc         1 NUU       0.040700
     28 H6         -34.6480     5.1350    -6.5050 hc         1 NUU       0.040700
     29 H7         -35.5280     6.6820    -8.9850 hc         1 NUU       0.040700
     30 H8         -33.9710     7.2410    -9.6040 hc         1 NUU       0.040700
     31 H9         -34.1460     5.5730    -9.0230 hc         1 NUU       0.040700
     32 H10        -34.1090     8.9010    -6.2080 hc         1 NUU       0.040700
     33 H11        -33.9290     9.1950    -7.9490 hc         1 NUU       0.040700
     34 H12        -35.4970     8.7060    -7.2940 hc         1 NUU       0.040700
     35 H13        -31.2690     8.5960    -7.3900 h1         1 NUU       0.098200
     36 H14        -32.0570     8.1030    -8.9000 h1         1 NUU       0.098200
     37 H15        -30.5340     2.1940    -9.4590 h4         1 NUU       0.026100
     38 H16        -33.5210     1.7710   -13.3160 hc         1 NUU       0.069700
     39 H17        -31.9240     2.4400   -13.6270 hc         1 NUU       0.069700
     40 H18        -34.7060     7.4380   -13.8430 ha         1 NUU       0.126000
     41 H19        -33.1120     7.1450   -11.9500 ha         1 NUU       0.136000
@<TRIPOS>BOND
     1     1    14 1   
     2     1    15 1   
     3     1    23 1   
     4     1    24 1   
     5     2     4 ar  
     6     2    15 1   
     7     2    19 ar  
     8     3    16 ar  
     9     3    19 ar  
    10     3    25 1   
    11     4     5 1   
    12     4    17 ar  
    13     5    14 ar  
    14     5    20 ar  
    15     6     7 1   
    16     6    26 1   
    17     6    27 1   
    18     6    28 1   
    19     7     8 1   
    20     7     9 1   
    21     7    10 1   
    22     8    29 1   
    23     8    30 1   
    24     8    31 1   
    25     9    32 1   
    26     9    33 1   
    27     9    34 1   
    28    10    11 1   
    29    10    21 2   
    30    11    22 1   
    31    11    35 1   
    32    11    36 1   
    33    12    18 ar  
    34    12    20 ar  
    35    12    22 1   
    36    13    14 ar  
    37    13    18 ar  
    38    13    37 1   
    39    15    38 1   
    40    15    39 1   
    41    16    17 ar  
    42    16    40 1   
    43    17    41 1   
@<TRIPOS>SUBSTRUCTURE
     1 NUU         1 TEMP              0 ****  ****    0 ROOT
