@<TRIPOS>MOLECULE
NUW
   62    65     1     0     0
SMALL
bcc


@<TRIPOS>ATOM
      1 N1          -6.8870    -0.6840     0.1350 ns         1 NUW      -0.571900
      2 N3           2.7370    -3.4090    -0.7690 n          1 NUW      -0.478800
      3 C4          -4.0760    -1.1000     0.6580 ca         1 NUW      -0.094000
      4 C5          -2.7590    -1.1510     1.0740 ca         1 NUW      -0.142000
      5 C6          -1.9400    -0.0910     0.7020 ca         1 NUW      -0.067200
      6 C7           0.3080    -0.7560     1.5390 c3         1 NUW       0.049300
      7 C8           0.6930    -1.8930     0.5970 c6         1 NUW      -0.082700
      8 C10          2.0890    -3.9780     0.4000 c6         1 NUW       0.097500
      9 C15         -0.3520     1.3720     0.3100 cc         1 NUW       0.478400
     10 C17         -3.7350     1.0060    -0.4960 ca         1 NUW      -0.004000
     11 C20          2.7540     3.0560    -0.9470 ca         1 NUW      -0.141800
     12 C21          3.3500     3.4860    -2.2560 c3         1 NUW      -0.042300
     13 C22          3.4410     3.2740     0.2530 ca         1 NUW       0.156100
     14 C2          -5.9950     0.0270    -0.5710 c          1 NUW       0.679700
     15 C1          -8.2920    -0.7000    -0.1980 c3         1 NUW       0.094300
     16 C3          -4.5740    -0.0310    -0.1120 ca         1 NUW      -0.179600
     17 C16         -2.4100     0.9750    -0.0790 ca         1 NUW       0.055400
     18 N4          -1.3930     1.8680    -0.3050 nd         1 NUW      -0.558100
     19 C18          0.9660     2.0120     0.3130 ca         1 NUW      -0.153900
     20 C19          1.5170     2.4300    -0.8930 ca         1 NUW      -0.065000
     21 C23          2.9040     2.8810     1.4840 ca         1 NUW      -0.141800
     22 C25          1.6680     2.2520     1.4920 ca         1 NUW      -0.065000
     23 N2          -0.6220     0.1860     0.9450 na         1 NUW      -0.143300
     24 C9           1.6100    -2.8720     1.3310 c6         1 NUW      -0.098900
     25 C12          1.3650    -1.3820    -0.6760 c6         1 NUW      -0.098900
     26 C11          1.8620    -2.5400    -1.5330 c6         1 NUW       0.097500
     27 O2           4.7810    -4.1730    -0.1950 o          1 NUW      -0.606100
     28 C14          4.6760    -2.7820    -2.1250 c3         1 NUW      -0.177100
     29 H1          -6.6140    -1.0980     1.0100 hn         1 NUW       0.313500
     30 H2          -4.7180    -1.9310     0.9200 ha         1 NUW       0.127000
     31 H3          -2.3970    -1.9900     1.6530 ha         1 NUW       0.137000
     32 H4          -0.1490    -1.1500     2.4500 h1         1 NUW       0.065200
     33 H5           1.2030    -0.2190     1.8470 h1         1 NUW       0.065200
     34 H6          -0.2140    -2.4390     0.3050 hc         1 NUW       0.059700
     35 H7           1.2350    -4.5750     0.0650 h1         1 NUW       0.058200
     36 H8           2.7770    -4.6470     0.9090 h1         1 NUW       0.058200
     37 H9          -4.1040     1.8260    -1.0990 ha         1 NUW       0.171000
     38 H10          3.5230     4.5650    -2.2960 hc         1 NUW       0.045033
     39 H11          4.3050     2.9940    -2.4560 hc         1 NUW       0.045033
     40 H12          2.6850     3.2400    -3.0810 hc         1 NUW       0.045033
     41 H13          4.6270     2.6540     2.7580 hc         1 NUW       0.045033
     42 H14          3.8300     4.2100     2.9090 hc         1 NUW       0.045033
     43 H15          3.0940     2.7750     3.6150 hc         1 NUW       0.045033
     44 H16         -8.7700     0.2650    -0.0160 h1         1 NUW       0.039700
     45 H17         -8.4440    -0.9660    -1.2420 h1         1 NUW       0.039700
     46 H18         -8.7820    -1.4460     0.4200 h1         1 NUW       0.039700
     47 H19          0.9770     2.2560    -1.8170 ha         1 NUW       0.141000
     48 H20          4.9490     4.1060    -0.5960 ho         1 NUW       0.431000
     49 H21          1.2400     1.9680     2.4460 ha         1 NUW       0.141000
     50 H22          2.4790    -2.3370     1.7290 hc         1 NUW       0.053950
     51 H23          1.0870    -3.3140     2.1810 hc         1 NUW       0.053950
     52 H24          0.6720    -0.7850    -1.2730 hc         1 NUW       0.053950
     53 H25          2.2070    -0.7290    -0.4200 hc         1 NUW       0.053950
     54 H26          2.3650    -2.1700    -2.4220 h1         1 NUW       0.058200
     55 H27          1.0080    -3.1310    -1.8800 h1         1 NUW       0.058200
     56 H28          4.5430    -1.7030    -2.0420 hc         1 NUW       0.060367
     57 H29          5.7420    -2.9920    -2.1620 hc         1 NUW       0.060367
     58 H30          4.2310    -3.0930    -3.0700 hc         1 NUW       0.060367
     59 O3           4.6460     3.8740     0.2880 oh         1 NUW      -0.494100
     60 C13          4.0730    -3.5110    -0.9450 c          1 NUW       0.674100
     61 C24          3.6520     3.1440     2.7560 c3         1 NUW      -0.042300
     62 O1          -6.3220     0.6980    -1.5440 o          1 NUW      -0.605100
@<TRIPOS>BOND
     1     1    14 1   
     2     1    15 1   
     3     1    29 1   
     4     2     8 1   
     5     2    26 1   
     6     2    60 1   
     7     3     4 ar  
     8     3    16 ar  
     9     3    30 1   
    10     4     5 ar  
    11     4    31 1   
    12     5    17 ar  
    13     5    23 1   
    14     6     7 1   
    15     6    23 1   
    16     6    32 1   
    17     6    33 1   
    18     7    24 1   
    19     7    25 1   
    20     7    34 1   
    21     8    24 1   
    22     8    35 1   
    23     8    36 1   
    24     9    18 2   
    25     9    19 1   
    26     9    23 1   
    27    10    16 ar  
    28    10    17 ar  
    29    10    37 1   
    30    11    12 1   
    31    11    13 ar  
    32    11    20 ar  
    33    12    38 1   
    34    12    39 1   
    35    12    40 1   
    36    13    21 ar  
    37    13    59 1   
    38    14    16 1   
    39    14    62 2   
    40    15    44 1   
    41    15    45 1   
    42    15    46 1   
    43    17    18 1   
    44    19    20 ar  
    45    19    22 ar  
    46    20    47 1   
    47    21    22 ar  
    48    21    61 1   
    49    22    49 1   
    50    24    50 1   
    51    24    51 1   
    52    25    26 1   
    53    25    52 1   
    54    25    53 1   
    55    26    54 1   
    56    26    55 1   
    57    27    60 2   
    58    28    56 1   
    59    28    57 1   
    60    28    58 1   
    61    28    60 1   
    62    41    61 1   
    63    42    61 1   
    64    43    61 1   
    65    48    59 1   
@<TRIPOS>SUBSTRUCTURE
     1 NUW         1 TEMP              0 ****  ****    0 ROOT
