@<TRIPOS>MOLECULE
NUW
   62    65     1     0     0
SMALL
No Charge or Current Charge


@<TRIPOS>ATOM
      1 N1          -6.9350    -0.8710    -0.0520 ns         1 NUW      -0.504900
      2 N3           2.7420    -3.4390    -0.7210 n          1 NUW      -0.411800
      3 C4          -4.1810    -0.9550     0.8350 ca         1 NUW      -0.076000
      4 C5          -2.8350    -0.9740     1.2520 ca         1 NUW      -0.124000
      5 C6          -1.9970     0.0580     0.8100 ca         1 NUW      -0.067200
      6 C7           0.2240    -0.7290     1.6230 c3         1 NUW       0.078600
      7 C8           0.6600    -1.8570     0.6420 c6         1 NUW      -0.082700
      8 C10          1.9790    -4.0390     0.4030 c6         1 NUW       0.097500
      9 C15         -0.3470     1.4760     0.3560 cc         1 NUW       0.478400
     10 C17         -3.7720     1.1030    -0.4320 ca         1 NUW       0.014000
     11 C20          2.7360     3.1920    -1.0190 ca         1 NUW      -0.141800
     12 C21          3.2190     3.7230    -2.3690 c3         1 NUW      -0.042300
     13 C22          3.5380     3.2870     0.1400 ca         1 NUW       0.156100
     14 C2          -6.1030     0.1380    -0.4830 c          1 NUW       0.612700
     15 C1          -8.3520    -0.9820    -0.4050 c3         1 NUW       0.094300
     16 C3          -4.6670     0.0840    -0.0130 ca         1 NUW      -0.179600
     17 C16         -2.4380     1.0620    -0.0010 ca         1 NUW       0.055400
     18 N4          -1.4180     1.9590    -0.3080 nd         1 NUW      -0.558100
     19 C18          0.9920     2.0700     0.2880 ca         1 NUW      -0.153900
     20 C19          1.4640     2.5960    -0.9310 ca         1 NUW      -0.047000
     21 C23          3.0600     2.8030     1.3760 ca         1 NUW      -0.141800
     22 C25          1.7860     2.2090     1.4440 ca         1 NUW      -0.047000
     23 N2          -0.6710     0.2920     1.0390 na         1 NUW      -0.172600
     24 C9           1.4970    -2.9400     1.3790 c6         1 NUW      -0.098900
     25 C12          1.4550    -1.3070    -0.5790 c6         1 NUW      -0.098900
     26 C11          1.9400    -2.4540    -1.4960 c6         1 NUW       0.097500
     27 O2           4.7700    -4.3100    -0.0740 o          1 NUW      -0.606100
     28 C14          4.8660    -2.9410    -2.0270 c3         1 NUW      -0.177100
     29 H1          -6.5290    -1.5770     0.5480 hn         1 NUW       0.313500
     30 H2          -4.8330    -1.7550     1.1770 ha         1 NUW       0.109000
     31 H3          -2.4670    -1.7690     1.8960 ha         1 NUW       0.119000
     32 H4          -0.2870    -1.1850     2.4800 h1         1 NUW       0.065200
     33 H5           1.1270    -0.2490     2.0140 h1         1 NUW       0.065200
     34 H6          -0.2630    -2.3260     0.2740 hc         1 NUW       0.059700
     35 H7           1.1100    -4.5780    -0.0010 h1         1 NUW       0.058200
     36 H8           2.5870    -4.7740     0.9480 h1         1 NUW       0.058200
     37 H9          -4.1010     1.9120    -1.0790 ha         1 NUW       0.153000
     38 H10          3.4220     4.8000    -2.3220 hc         1 NUW       0.045033
     39 H11          4.1360     3.2150    -2.6910 hc         1 NUW       0.045033
     40 H12          2.4720     3.5700    -3.1570 hc         1 NUW       0.045033
     41 H13          4.8600     2.4000     2.5310 hc         1 NUW       0.045033
     42 H14          4.1190     3.9730     2.8740 hc         1 NUW       0.045033
     43 H15          3.3960     2.4930     3.5160 hc         1 NUW       0.045033
     44 H16         -8.8910    -0.0930    -0.0530 h1         1 NUW       0.039700
     45 H17         -8.4570    -1.0660    -1.4940 h1         1 NUW       0.039700
     46 H18         -8.7790    -1.8750     0.0700 h1         1 NUW       0.039700
     47 H19          0.8420     2.5210    -1.8210 ha         1 NUW       0.123000
     48 H20          4.9340     4.1420    -0.8520 ho         1 NUW       0.470000
     49 H21          1.4050     1.8720     2.4050 ha         1 NUW       0.123000
     50 H22          2.3690    -2.4760     1.8600 hc         1 NUW       0.053950
     51 H23          0.9020    -3.3970     2.1820 hc         1 NUW       0.053950
     52 H24          0.8290    -0.6230    -1.1680 hc         1 NUW       0.053950
     53 H25          2.3210    -0.7250    -0.2350 hc         1 NUW       0.053950
     54 H26          2.5010    -2.0340    -2.3400 h1         1 NUW       0.058200
     55 H27          1.0660    -2.9690    -1.9230 h1         1 NUW       0.058200
     56 H28          4.7300    -1.8560    -1.9590 hc         1 NUW       0.060367
     57 H29          5.9300    -3.2020    -2.0650 hc         1 NUW       0.060367
     58 H30          4.3570    -3.1950    -2.9640 hc         1 NUW       0.060367
     59 O3           4.7760     3.8630     0.0730 oh         1 NUW      -0.533100
     60 C13          4.1410    -3.6110    -0.8580 c          1 NUW       0.607100
     61 C24          3.9030     2.9230     2.6440 c3         1 NUW      -0.042300
     62 O1          -6.5170     1.0310    -1.2110 o          1 NUW      -0.605100
@<TRIPOS>BOND
     1     1    14 1   
     2     1    15 1   
     3     1    29 1   
     4     2     8 1   
     5     2    26 1   
     6     2    60 1   
     7     3     4 ar  
     8     3    16 ar  
     9     3    30 1   
    10     4     5 ar  
    11     4    31 1   
    12     5    17 ar  
    13     5    23 1   
    14     6     7 1   
    15     6    23 1   
    16     6    32 1   
    17     6    33 1   
    18     7    24 1   
    19     7    25 1   
    20     7    34 1   
    21     8    24 1   
    22     8    35 1   
    23     8    36 1   
    24     9    18 2   
    25     9    19 1   
    26     9    23 1   
    27    10    16 ar  
    28    10    17 ar  
    29    10    37 1   
    30    11    12 1   
    31    11    13 ar  
    32    11    20 ar  
    33    12    38 1   
    34    12    39 1   
    35    12    40 1   
    36    13    21 ar  
    37    13    59 1   
    38    14    16 1   
    39    14    62 2   
    40    15    44 1   
    41    15    45 1   
    42    15    46 1   
    43    17    18 1   
    44    19    20 ar  
    45    19    22 ar  
    46    20    47 1   
    47    21    22 ar  
    48    21    61 1   
    49    22    49 1   
    50    24    50 1   
    51    24    51 1   
    52    25    26 1   
    53    25    52 1   
    54    25    53 1   
    55    26    54 1   
    56    26    55 1   
    57    27    60 2   
    58    28    56 1   
    59    28    57 1   
    60    28    58 1   
    61    28    60 1   
    62    41    61 1   
    63    42    61 1   
    64    43    61 1   
    65    48    59 1   
@<TRIPOS>SUBSTRUCTURE
     1 NUW         1 TEMP              0 ****  ****    0 ROOT
