@<TRIPOS>MOLECULE
NUX
   60    62     1     0     0
SMALL
No Charge or Current Charge


@<TRIPOS>ATOM
      1 C1         139.8630    21.4220    -4.8870 ca         1 NUX      -0.071000
      2 C2         138.6640    20.8200    -5.3050 ca         1 NUX      -0.173000
      3 C3         137.6640    20.4860    -4.3700 ca         1 NUX       0.307000
      4 N4         136.4530    19.8820    -4.7790 nh         1 NUX      -0.791400
      5 C5         135.1390    20.5080    -4.4280 c6         1 NUX       0.200500
      6 C6         134.8210    21.6500    -5.4330 c3         1 NUX      -0.124100
      7 C7         133.9840    19.4500    -4.3500 c6         1 NUX       0.117700
      8 C8         134.1110    18.5890    -3.0600 c3         1 NUX      -0.100100
      9 N9         133.9300    18.6050    -5.5860 n          1 NUX      -0.399800
     10 C10        133.0270    18.8940    -6.6350 c          1 NUX       0.613700
     11 O11        133.3500    18.7220    -7.8050 o          1 NUX      -0.583100
     12 C12        131.6150    19.3270    -6.2920 ca         1 NUX      -0.100600
     13 C13        130.9540    18.8690    -5.1290 ca         1 NUX      -0.095000
     14 C14        129.6380    19.2730    -4.8460 ca         1 NUX      -0.038000
     15 C15        128.9590    20.1320    -5.7290 ca         1 NUX      -0.075500
     16 S16        127.2410    20.6510    -5.3650 sx         1 NUX       0.313200
     17 C17        126.4080    19.1530    -6.0510 c3         1 NUX      -0.158100
     18 C18        124.8960    19.3070    -5.9340 c          1 NUX       0.563100
     19 C19        124.1770    20.0150    -7.1220 c3         1 NUX       0.093000
     20 C20        122.6480    20.1940    -6.8910 c3         1 NUX      -0.118400
     21 C21        121.8970    20.8980    -8.0460 c3         1 NUX      -0.089100
     22 F22        124.7290    21.2340    -7.3390 f          1 NUX      -0.111000
     23 F23        124.3630    19.3010    -8.2590 f          1 NUX      -0.111000
     24 O24        124.2960    18.8750    -4.9550 o          1 NUX      -0.482100
     25 O25        127.0580    20.6290    -3.8580 o          1 NUX      -0.496000
     26 C26        129.5970    20.5710    -6.9030 ca         1 NUX       0.169000
     27 Cl27       128.7620    21.6230    -8.0450 cl         1 NUX      -0.191000
     28 C28        130.9110    20.1650    -7.1840 ca         1 NUX      -0.088000
     29 C29        135.2400    17.9500    -5.8770 c6         1 NUX       0.087000
     30 C30        136.4100    18.9670    -5.9620 c6         1 NUX       0.178800
     31 C31        137.8830    20.7610    -3.0090 ca         1 NUX      -0.152000
     32 C32        139.0790    21.3610    -2.5890 ca         1 NUX       0.151000
     33 Cl33       139.3380    21.6950    -0.8820 cl         1 NUX      -0.209000
     34 C34        140.0700    21.6930    -3.5250 ca         1 NUX      -0.136000
     35 H1         140.6280    21.6800    -5.6170 ha         1 NUX       0.116000
     36 H2         138.5110    20.6260    -6.3620 ha         1 NUX       0.117000
     37 H3         135.2070    20.9820    -3.4370 h1         1 NUX       0.069700
     38 H4         133.8860    22.1550    -5.1660 hc         1 NUX       0.045700
     39 H5         135.6150    22.4060    -5.4310 hc         1 NUX       0.045700
     40 H6         134.7170    21.2790    -6.4580 hc         1 NUX       0.045700
     41 H7         133.0500    20.0180    -4.2480 h1         1 NUX       0.066700
     42 H8         134.0150    19.2130    -2.1640 hc         1 NUX       0.048367
     43 H9         133.3290    17.8230    -3.0140 hc         1 NUX       0.048367
     44 H10        135.0810    18.0810    -3.0000 hc         1 NUX       0.048367
     45 H11        131.4490    18.1810    -4.4480 ha         1 NUX       0.130000
     46 H12        129.1450    18.9140    -3.9450 ha         1 NUX       0.152000
     47 H13        126.7350    18.2760    -5.4820 h1         1 NUX       0.122700
     48 H14        126.6930    19.0520    -7.1040 h1         1 NUX       0.122700
     49 H15        122.4890    20.7680    -5.9690 hc         1 NUX       0.073700
     50 H16        122.1910    19.2090    -6.7270 hc         1 NUX       0.073700
     51 H17        120.8300    20.9850    -7.8090 hc         1 NUX       0.046033
     52 H18        122.2900    21.9090    -8.2120 hc         1 NUX       0.046033
     53 H19        121.9920    20.3320    -8.9800 hc         1 NUX       0.046033
     54 H21        131.3880    20.5130    -8.0970 ha         1 NUX       0.139000
     55 H22        135.1880    17.3780    -6.8140 h1         1 NUX       0.070200
     56 H23        135.4600    17.2210    -5.0850 h1         1 NUX       0.070200
     57 H24        137.3510    18.4020    -6.0400 h1         1 NUX       0.049200
     58 H25        136.3040    19.5530    -6.8860 h1         1 NUX       0.049200
     59 H26        137.1300    20.4970    -2.2740 ha         1 NUX       0.129000
     60 H27        140.9950    22.1590    -3.1940 ha         1 NUX       0.132000
@<TRIPOS>BOND
     1     1     2 ar  
     2     1    34 ar  
     3     1    35 1   
     4     2     3 ar  
     5     2    36 1   
     6     3     4 1   
     7     3    31 ar  
     8     4     5 1   
     9     4    30 1   
    10     5     6 1   
    11     5     7 1   
    12     5    37 1   
    13     6    38 1   
    14     6    39 1   
    15     6    40 1   
    16     7     8 1   
    17     7     9 1   
    18     7    41 1   
    19     8    42 1   
    20     8    43 1   
    21     8    44 1   
    22     9    10 1   
    23     9    29 1   
    24    10    11 2   
    25    10    12 1   
    26    12    13 ar  
    27    12    28 ar  
    28    13    14 ar  
    29    13    45 1   
    30    14    15 ar  
    31    14    46 1   
    32    15    16 1   
    33    15    26 ar  
    34    16    17 1   
    35    16    25 2   
    36    17    18 1   
    37    17    47 1   
    38    17    48 1   
    39    18    19 1   
    40    18    24 2   
    41    19    20 1   
    42    19    22 1   
    43    19    23 1   
    44    20    21 1   
    45    20    49 1   
    46    20    50 1   
    47    21    51 1   
    48    21    52 1   
    49    21    53 1   
    50    26    27 1   
    51    26    28 ar  
    52    28    54 1   
    53    29    30 1   
    54    29    55 1   
    55    29    56 1   
    56    30    57 1   
    57    30    58 1   
    58    31    32 ar  
    59    31    59 1   
    60    32    33 1   
    61    32    34 ar  
    62    34    60 1   
@<TRIPOS>SUBSTRUCTURE
     1 NUX         1 TEMP              0 ****  ****    0 ROOT
