@<TRIPOS>MOLECULE
NUX
   60    62     1     0     0
SMALL
abcg2


@<TRIPOS>ATOM
      1 C1         139.6030    21.5270    -5.2050 ca         1 NUX      -0.071000
      2 C2         138.4650    20.7990    -5.5190 ca         1 NUX      -0.173000
      3 C3         137.4740    20.5660    -4.5560 ca         1 NUX       0.307000
      4 N4         136.3400    19.8080    -4.8230 nh         1 NUX      -0.791400
      5 C5         135.0500    20.3390    -4.3760 c6         1 NUX       0.200500
      6 C6         134.5590    21.4960    -5.2450 c3         1 NUX      -0.124100
      7 C7         134.0190    19.2070    -4.2900 c6         1 NUX       0.117700
      8 C8         134.2960    18.2440    -3.1430 c3         1 NUX      -0.100100
      9 N9         133.9550    18.5240    -5.5760 n          1 NUX      -0.399800
     10 C10        132.8720    18.4830    -6.3700 c          1 NUX       0.613700
     11 O11        132.8650    18.0280    -7.5030 o          1 NUX      -0.583100
     12 C12        131.5800    19.0070    -5.8090 ca         1 NUX      -0.100600
     13 C13        130.7940    18.2020    -4.9940 ca         1 NUX      -0.095000
     14 C14        129.5320    18.6260    -4.6080 ca         1 NUX      -0.038000
     15 C15        129.0610    19.8570    -5.0320 ca         1 NUX      -0.075500
     16 S16        127.4300    20.4020    -4.5020 sx         1 NUX       0.313200
     17 C17        126.6130    19.9740    -6.0790 c3         1 NUX      -0.158100
     18 C18        125.1880    20.4570    -6.0400 c          1 NUX       0.563100
     19 C19        124.3500    20.1950    -7.3060 c3         1 NUX       0.093000
     20 C20        122.9070    20.6110    -7.2250 c3         1 NUX      -0.118400
     21 C21        122.1290    20.3400    -8.5070 c3         1 NUX      -0.089100
     22 F22        124.9900    20.8400    -8.3260 f          1 NUX      -0.111000
     23 F23        124.4620    18.8630    -7.5800 f          1 NUX      -0.111000
     24 O24        124.7210    21.0270    -5.0930 o          1 NUX      -0.482100
     25 O25        126.9420    19.3970    -3.5010 o          1 NUX      -0.496000
     26 C26        129.8680    20.6750    -5.8090 ca         1 NUX       0.169000
     27 CL27       129.2940    22.2320    -6.2950 cl         1 NUX      -0.191000
     28 C28        131.1170    20.2500    -6.2220 ca         1 NUX      -0.088000
     29 C29        135.2300    18.0080    -6.0370 c6         1 NUX       0.087000
     30 C30        136.2770    19.1050    -6.0900 c6         1 NUX       0.178800
     31 C31        137.6720    21.1010    -3.2730 ca         1 NUX      -0.152000
     32 C32        138.8080    21.8350    -2.9960 ca         1 NUX       0.151000
     33 CL33       139.0100    22.4770    -1.3940 cl         1 NUX      -0.209000
     34 C34        139.7960    22.0640    -3.9420 ca         1 NUX      -0.136000
     35 H1         140.3500    21.6930    -5.9710 ha         1 NUX       0.116000
     36 H2         138.3540    20.4300    -6.5280 ha         1 NUX       0.117000
     37 H3         135.1650    20.7120    -3.3580 h1         1 NUX       0.069700
     38 H4         133.6480    21.9230    -4.8240 hc         1 NUX       0.045700
     39 H5         135.3070    22.2890    -5.2890 hc         1 NUX       0.045700
     40 H6         134.3390    21.1900    -6.2680 hc         1 NUX       0.045700
     41 H7         133.0540    19.6770    -4.1030 h1         1 NUX       0.066700
     42 H8         134.2140    18.7750    -2.1960 hc         1 NUX       0.048367
     43 H9         133.5680    17.4320    -3.1370 hc         1 NUX       0.048367
     44 H10        135.2940    17.8110    -3.1920 hc         1 NUX       0.048367
     45 H11        131.1590    17.2380    -4.6640 ha         1 NUX       0.130000
     46 H12        128.9100    18.0000    -3.9820 ha         1 NUX       0.152000
     47 H13        126.6670    18.8890    -6.1990 h1         1 NUX       0.122700
     48 H14        127.1460    20.4300    -6.9160 h1         1 NUX       0.122700
     49 H15        122.8690    21.6740    -6.9800 hc         1 NUX       0.073700
     50 H16        122.4460    20.0850    -6.3860 hc         1 NUX       0.073700
     51 H17        121.0980    20.6650    -8.3770 hc         1 NUX       0.046033
     52 H18        122.5380    20.8840    -9.3560 hc         1 NUX       0.046033
     53 H19        122.1080    19.2800    -8.7570 hc         1 NUX       0.046033
     54 H21        131.7260    20.8880    -6.8490 ha         1 NUX       0.139000
     55 H22        135.1100    17.5710    -7.0240 h1         1 NUX       0.070200
     56 H23        135.5600    17.2130    -5.3640 h1         1 NUX       0.070200
     57 H24        137.2380    18.6260    -6.2820 h1         1 NUX       0.049200
     58 H25        136.0750    19.7750    -6.9360 h1         1 NUX       0.049200
     59 H26        136.9550    20.9240    -2.4840 ha         1 NUX       0.129000
     60 H27        140.6780    22.6410    -3.7050 ha         1 NUX       0.132000
@<TRIPOS>BOND
     1     1     2 ar  
     2     1    34 ar  
     3     1    35 1   
     4     2     3 ar  
     5     2    36 1   
     6     3     4 1   
     7     3    31 ar  
     8     4     5 1   
     9     4    30 1   
    10     5     6 1   
    11     5     7 1   
    12     5    37 1   
    13     6    38 1   
    14     6    39 1   
    15     6    40 1   
    16     7     8 1   
    17     7     9 1   
    18     7    41 1   
    19     8    42 1   
    20     8    43 1   
    21     8    44 1   
    22     9    10 1   
    23     9    29 1   
    24    10    11 2   
    25    10    12 1   
    26    12    13 ar  
    27    12    28 ar  
    28    13    14 ar  
    29    13    45 1   
    30    14    15 ar  
    31    14    46 1   
    32    15    16 1   
    33    15    26 ar  
    34    16    17 1   
    35    16    25 2   
    36    17    18 1   
    37    17    47 1   
    38    17    48 1   
    39    18    19 1   
    40    18    24 2   
    41    19    20 1   
    42    19    22 1   
    43    19    23 1   
    44    20    21 1   
    45    20    49 1   
    46    20    50 1   
    47    21    51 1   
    48    21    52 1   
    49    21    53 1   
    50    26    27 1   
    51    26    28 ar  
    52    28    54 1   
    53    29    30 1   
    54    29    55 1   
    55    29    56 1   
    56    30    57 1   
    57    30    58 1   
    58    31    32 ar  
    59    31    59 1   
    60    32    33 1   
    61    32    34 ar  
    62    34    60 1   
@<TRIPOS>SUBSTRUCTURE
     1 NUX         1 TEMP              0 ****  ****    0 ROOT
