@<TRIPOS>MOLECULE
NUY
   34    35     1     0     0
SMALL
No Charge or Current Charge


@<TRIPOS>ATOM
      1 N1          -2.7750     0.2110     0.1590 n3         1 NUY      -0.715600
      2 C4          -1.6610     1.1380    -0.2280 c6         1 NUY       0.137300
      3 C5          -0.3070     0.8070     0.4640 c6         1 NUY       0.091000
      4 C6          -1.0230    -1.5520     0.6380 c6         1 NUY       0.091000
      5 C7          -2.3440    -1.2020    -0.0940 c6         1 NUY       0.137300
      6 C10          3.5300    -0.4960    -1.2160 cc         1 NUY      -0.078000
      7 C1          -5.2380    -0.3950    -0.0480 c3         1 NUY      -0.092100
      8 C11          4.6800     0.2630    -0.8960 cc         1 NUY      -0.141000
      9 C12          4.5090     1.0970     0.1770 cd         1 NUY      -0.239000
     10 C2          -4.0910     0.5600    -0.4690 c3         1 NUY       0.185500
     11 C3          -4.5320     2.0200    -0.1880 c3         1 NUY      -0.092100
     12 C9           2.4460    -0.2380    -0.4100 cd         1 NUY      -0.287600
     13 N2           0.0860    -0.6210     0.2960 n          1 NUY      -0.401800
     14 O1           1.1300    -2.0670    -1.1470 o          1 NUY      -0.586100
     15 S1           2.8650     0.9700     0.8280 ss         1 NUY       0.234000
     16 H2          -1.5110     1.1060    -1.3180 h1         1 NUY       0.041950
     17 H3          -1.9040     2.1770     0.0310 h1         1 NUY       0.041950
     18 H4           0.4370     1.4770     0.0190 h1         1 NUY       0.064700
     19 H5          -0.3770     1.0390     1.5360 h1         1 NUY       0.064700
     20 H6          -1.1970    -1.5050     1.7230 h1         1 NUY       0.064700
     21 H7          -0.7440    -2.5900     0.4080 h1         1 NUY       0.064700
     22 H8          -3.1010    -1.9160     0.2560 h1         1 NUY       0.041950
     23 H9          -2.2080    -1.3730    -1.1720 h1         1 NUY       0.041950
     24 H11         -5.3140    -0.4550     1.0450 hc         1 NUY       0.038367
     25 H12         -6.2010    -0.0440    -0.4370 hc         1 NUY       0.038367
     26 H13         -5.0890    -1.4050    -0.4460 hc         1 NUY       0.038367
     27 H14          5.6110     0.1670    -1.4480 ha         1 NUY       0.138000
     28 H15          5.2250     1.7720     0.6290 h4         1 NUY       0.152000
     29 H16         -3.9920     0.4670    -1.5600 h1         1 NUY       0.020700
     30 H17         -4.5310     2.2270     0.8890 hc         1 NUY       0.038367
     31 H18         -3.8760     2.7420    -0.6860 hc         1 NUY       0.038367
     32 H19         -5.5440     2.2020    -0.5690 hc         1 NUY       0.038367
     33 C8           1.1930    -1.0450    -0.4740 c          1 NUY       0.642700
     34 H10          3.5330    -1.2280    -2.0210 ha         1 NUY       0.146000
@<TRIPOS>BOND
     1     1     2 1   
     2     1     5 1   
     3     1    10 1   
     4     2     3 1   
     5     2    16 1   
     6     2    17 1   
     7     3    13 1   
     8     3    18 1   
     9     3    19 1   
    10     4     5 1   
    11     4    13 1   
    12     4    20 1   
    13     4    21 1   
    14     5    22 1   
    15     5    23 1   
    16     6     8 1   
    17     6    12 2   
    18     6    34 1   
    19     7    10 1   
    20     7    24 1   
    21     7    25 1   
    22     7    26 1   
    23     8     9 2   
    24     8    27 1   
    25     9    15 1   
    26     9    28 1   
    27    10    11 1   
    28    10    29 1   
    29    11    30 1   
    30    11    31 1   
    31    11    32 1   
    32    12    15 1   
    33    12    33 1   
    34    13    33 1   
    35    14    33 2   
@<TRIPOS>SUBSTRUCTURE
     1 NUY         1 TEMP              0 ****  ****    0 ROOT
