@<TRIPOS>MOLECULE
NUY
   34    35     1     0     0
SMALL
abcg2


@<TRIPOS>ATOM
      1 N1          -2.6620     0.1830     0.1670 n3         1 NUY      -0.715600
      2 C4          -1.5180     1.0230    -0.1430 c6         1 NUY       0.137300
      3 C5          -0.3060     0.6810     0.7110 c6         1 NUY       0.091000
      4 C6          -1.0980    -1.5770     0.8500 c6         1 NUY       0.091000
      5 C7          -2.2930    -1.2120    -0.0140 c6         1 NUY       0.137300
      6 C10          3.0430    -0.2080    -1.4080 cc         1 NUY      -0.078000
      7 C1          -5.0460    -0.3290    -0.2460 c3         1 NUY      -0.092100
      8 C11          4.1950     0.5960    -1.2120 cc         1 NUY      -0.141000
      9 C12          4.3060     1.0430     0.0700 cd         1 NUY      -0.239000
     10 C2          -3.8530     0.5530    -0.6060 c3         1 NUY       0.185500
     11 C3          -4.2360     2.0120    -0.3710 c3         1 NUY      -0.092100
     12 C9           2.2840    -0.3300    -0.2800 cd         1 NUY      -0.287600
     13 N2           0.0400    -0.7230     0.5680 n          1 NUY      -0.401800
     14 O1           1.1150    -2.3220    -0.6260 o          1 NUY      -0.586100
     15 S1           3.0040     0.5110     1.0410 ss         1 NUY       0.234000
     16 H2          -1.2320     0.9490    -1.2080 h1         1 NUY       0.041950
     17 H3          -1.7530     2.0680     0.0550 h1         1 NUY       0.041950
     18 H4           0.5170     1.3210     0.4090 h1         1 NUY       0.064700
     19 H5          -0.5220     0.8870     1.7630 h1         1 NUY       0.064700
     20 H6          -1.3600    -1.4480     1.9050 h1         1 NUY       0.064700
     21 H7          -0.8300    -2.6190     0.6980 h1         1 NUY       0.064700
     22 H8          -3.1160    -1.8610     0.2830 h1         1 NUY       0.041950
     23 H9          -2.0620    -1.4410    -1.0690 h1         1 NUY       0.041950
     24 H11         -5.2260    -0.3150     0.8310 hc         1 NUY       0.038367
     25 H12         -5.9430     0.0470    -0.7390 hc         1 NUY       0.038367
     26 H13         -4.9270    -1.3650    -0.5580 hc         1 NUY       0.038367
     27 H14          4.9130     0.8230    -1.9870 ha         1 NUY       0.138000
     28 H15          5.0870     1.6530     0.4970 h4         1 NUY       0.152000
     29 H16         -3.6530     0.4240    -1.6860 h1         1 NUY       0.020700
     30 H17         -4.3510     2.2130     0.6960 hc         1 NUY       0.038367
     31 H18         -3.5120     2.7180    -0.7760 hc         1 NUY       0.038367
     32 H19         -5.1870     2.2250    -0.8580 hc         1 NUY       0.038367
     33 C8           1.0870    -1.1990    -0.1410 c          1 NUY       0.642700
     34 H10          2.7810    -0.6710    -2.3490 ha         1 NUY       0.146000
@<TRIPOS>BOND
     1     1     2 1   
     2     1     5 1   
     3     1    10 1   
     4     2     3 1   
     5     2    16 1   
     6     2    17 1   
     7     3    13 1   
     8     3    18 1   
     9     3    19 1   
    10     4     5 1   
    11     4    13 1   
    12     4    20 1   
    13     4    21 1   
    14     5    22 1   
    15     5    23 1   
    16     6     8 1   
    17     6    12 2   
    18     6    34 1   
    19     7    10 1   
    20     7    24 1   
    21     7    25 1   
    22     7    26 1   
    23     8     9 2   
    24     8    27 1   
    25     9    15 1   
    26     9    28 1   
    27    10    11 1   
    28    10    29 1   
    29    11    30 1   
    30    11    31 1   
    31    11    32 1   
    32    12    15 1   
    33    12    33 1   
    34    13    33 1   
    35    14    33 2   
@<TRIPOS>SUBSTRUCTURE
     1 NUY         1 TEMP              0 ****  ****    0 ROOT
