@<TRIPOS>MOLECULE
NUZ
   49    52     1     0     0
SMALL
No Charge or Current Charge


@<TRIPOS>ATOM
      1 CAI          6.7930     0.6610    -0.3830 ca         1 NUZ      -0.072500
      2 CAG          7.4760     1.8900    -0.4110 ca         1 NUZ      -0.114500
      3 CAF          6.7600     3.0950    -0.3780 ca         1 NUZ      -0.091000
      4 CAH          5.3580     3.0670    -0.3350 ca         1 NUZ      -0.114500
      5 CAJ          4.6740     1.8390    -0.3040 ca         1 NUZ      -0.072500
      6 CAW          5.3810     0.6120    -0.2900 ca         1 NUZ      -0.143500
      7 CAZ          4.6880    -0.6940    -0.3170 cc         1 NUZ       0.371500
      8 NAR          5.2600    -1.7280    -0.9210 nd         1 NUZ      -0.356300
      9 OAS          4.2700    -2.7610    -0.8960 os         1 NUZ      -0.064700
     10 CAU          3.1560    -2.2800    -0.2710 cd         1 NUZ       0.219300
     11 CAA          2.0640    -3.2670     0.0570 c3         1 NUZ      -0.144400
     12 CBA          3.3610    -0.9820     0.0940 cc         1 NUZ      -0.285600
     13 CAT          2.4850    -0.1580     0.9480 c          1 NUZ       0.651700
     14 OAB          2.9250     0.6310     1.7720 o          1 NUZ      -0.570100
     15 NBB          1.0950    -0.3500     0.8040 n          1 NUZ      -0.415800
     16 CAO          0.4880    -0.4550    -0.5640 c6         1 NUZ       0.094500
     17 CAQ         -0.9570    -1.0240    -0.5750 c6         1 NUZ       0.181300
     18 CAN          0.1670     0.2640     1.8030 c6         1 NUZ       0.094500
     19 CAP         -1.2780    -0.3030     1.7610 c6         1 NUZ       0.181300
     20 NBC         -1.8290    -0.2940     0.3810 nh         1 NUZ      -0.787400
     21 CAY         -3.2340    -0.2480     0.1940 ca         1 NUZ       0.340000
     22 CAV         -3.9680     0.9450     0.4070 ca         1 NUZ       0.071000
     23 CAM         -5.3620     0.9640     0.2200 ca         1 NUZ      -0.018000
     24 Cl1         -3.1670     2.4490     0.8840 cl         1 NUZ      -0.170000
     25 CAL         -3.9230    -1.4080    -0.2040 ca         1 NUZ      -0.180000
     26 CAK         -5.3160    -1.3940    -0.3900 ca         1 NUZ      -0.014000
     27 CAX         -6.0500    -0.2060    -0.1800 ca         1 NUZ      -0.204200
     28 NBD         -7.5340    -0.1830    -0.3770 no         1 NUZ       0.700200
     29 OAD         -8.1340     0.8810    -0.1790 o          1 NUZ      -0.398500
     30 OAC         -8.0940    -1.2300    -0.7290 o          1 NUZ      -0.398500
     31 H1           7.3760    -0.2570    -0.4120 ha         1 NUZ       0.119000
     32 H2           8.5620     1.9050    -0.4620 ha         1 NUZ       0.116500
     33 H3           7.2880     4.0460    -0.4040 ha         1 NUZ       0.115000
     34 H4           4.7980     3.9990    -0.3390 ha         1 NUZ       0.116500
     35 H5           3.5890     1.8600    -0.3300 ha         1 NUZ       0.119000
     36 H6           2.4800    -4.2700     0.2030 hc         1 NUZ       0.067033
     37 H7           1.5360    -2.9980     0.9790 hc         1 NUZ       0.067033
     38 H8           1.3320    -3.3310    -0.7550 hc         1 NUZ       0.067033
     39 H9           0.4550     0.5560    -0.9940 h1         1 NUZ       0.066950
     40 H10          1.1100    -1.0520    -1.2410 h1         1 NUZ       0.066950
     41 H11         -1.3570    -0.9460    -1.5970 h1         1 NUZ       0.051950
     42 H12         -0.9210    -2.0910    -0.3140 h1         1 NUZ       0.051950
     43 H13          0.5680     0.1210     2.8160 h1         1 NUZ       0.066950
     44 H14          0.1230     1.3470     1.6200 h1         1 NUZ       0.066950
     45 H15         -1.2660    -1.3320     2.1480 h1         1 NUZ       0.051950
     46 H16         -1.9100     0.2910     2.4380 h1         1 NUZ       0.051950
     47 H17         -5.8970     1.8960     0.3870 ha         1 NUZ       0.166000
     48 H18         -3.3780    -2.3340    -0.3600 ha         1 NUZ       0.128000
     49 H19         -5.8150    -2.3130    -0.6960 ha         1 NUZ       0.154000
@<TRIPOS>BOND
     1     1     2 ar  
     2     1     6 ar  
     3     1    31 1   
     4     2     3 ar  
     5     2    32 1   
     6     3     4 ar  
     7     3    33 1   
     8     4     5 ar  
     9     4    34 1   
    10     5     6 ar  
    11     5    35 1   
    12     6     7 1   
    13     7     8 2   
    14     7    12 1   
    15     8     9 1   
    16     9    10 1   
    17    10    11 1   
    18    10    12 2   
    19    11    36 1   
    20    11    37 1   
    21    11    38 1   
    22    12    13 1   
    23    13    14 2   
    24    13    15 1   
    25    15    16 1   
    26    15    18 1   
    27    16    17 1   
    28    16    39 1   
    29    16    40 1   
    30    17    20 1   
    31    17    41 1   
    32    17    42 1   
    33    18    19 1   
    34    18    43 1   
    35    18    44 1   
    36    19    20 1   
    37    19    45 1   
    38    19    46 1   
    39    20    21 1   
    40    21    22 ar  
    41    21    25 ar  
    42    22    23 ar  
    43    22    24 1   
    44    23    27 ar  
    45    23    47 1   
    46    25    26 ar  
    47    25    48 1   
    48    26    27 ar  
    49    26    49 1   
    50    27    28 1   
    51    28    29 1   
    52    28    30 1   
@<TRIPOS>SUBSTRUCTURE
     1 NUZ         1 TEMP              0 ****  ****    0 ROOT
