@<TRIPOS>MOLECULE
NUZ
   49    52     1     0     0
SMALL
bcc


@<TRIPOS>ATOM
      1 CAI          6.5870     0.5080    -0.2900 ca         1 NUZ      -0.090500
      2 CAG          7.2760     1.7110    -0.2650 ca         1 NUZ      -0.132500
      3 CAF          6.5850     2.9150    -0.3180 ca         1 NUZ      -0.109000
      4 CAH          5.1990     2.9100    -0.3990 ca         1 NUZ      -0.132500
      5 CAJ          4.5070     1.7090    -0.4230 ca         1 NUZ      -0.090500
      6 CAW          5.1950     0.4980    -0.3680 ca         1 NUZ      -0.143500
      7 CAZ          4.4670    -0.7730    -0.4140 cc         1 NUZ       0.436800
      8 NAR          4.9680    -1.8040    -1.0320 nd         1 NUZ      -0.356300
      9 OAS          4.0680    -2.8140    -0.8920 os         1 NUZ      -0.109100
     10 CAU          3.0080    -2.3930    -0.2030 cd         1 NUZ       0.329000
     11 CAA          1.9230    -3.3590     0.0720 c3         1 NUZ      -0.144400
     12 CBA          3.1890    -1.0890     0.1320 cc         1 NUZ      -0.416200
     13 CAT          2.3800    -0.2650     1.0650 c          1 NUZ       0.718700
     14 OAB          2.8870     0.1290     2.1030 o          1 NUZ      -0.570100
     15 NBB          1.0970    -0.0210     0.7260 n          1 NUZ      -0.482800
     16 CAO          0.5470    -0.1450    -0.6140 c6         1 NUZ       0.094500
     17 CAQ         -0.8370    -0.7720    -0.5830 c6         1 NUZ       0.181300
     18 CAN          0.2230     0.6940     1.6410 c6         1 NUZ       0.094500
     19 CAP         -1.1450     0.0420     1.6530 c6         1 NUZ       0.181300
     20 NBC         -1.6930    -0.0020     0.3000 nh         1 NUZ      -0.649000
     21 CAY         -3.0610    -0.1430     0.1640 ca         1 NUZ       0.201600
     22 CAV         -3.9390     0.8720     0.5930 ca         1 NUZ      -0.020600
     23 CAM         -5.3060     0.7520     0.4770 ca         1 NUZ      -0.036000
     24 CL1         -3.3080     2.3650     1.1950 cl         1 NUZ      -0.078400
     25 CAL         -3.6400    -1.2670    -0.4380 ca         1 NUZ      -0.198000
     26 CAK         -5.0070    -1.3990    -0.5800 ca         1 NUZ      -0.032000
     27 CAX         -5.8330    -0.3930    -0.1050 ca         1 NUZ      -0.204200
     28 NBD         -7.2690    -0.5220    -0.2290 no         1 NUZ       0.320200
     29 OAD         -7.9620     0.3680     0.2080 o          1 NUZ      -0.208500
     30 OAC         -7.7070    -1.5160    -0.7620 o          1 NUZ      -0.208500
     31 H1           7.1320    -0.4250    -0.2360 ha         1 NUZ       0.137000
     32 H2           8.3560     1.7080    -0.2010 ha         1 NUZ       0.134500
     33 H3           7.1250     3.8520    -0.2950 ha         1 NUZ       0.133000
     34 H4           4.6520     3.8430    -0.4490 ha         1 NUZ       0.134500
     35 H5           3.4280     1.7250    -0.5120 ha         1 NUZ       0.137000
     36 H6           2.3070    -4.2520     0.5660 hc         1 NUZ       0.067033
     37 H7           1.1750    -2.9080     0.7190 hc         1 NUZ       0.067033
     38 H8           1.4330    -3.6710    -0.8520 hc         1 NUZ       0.067033
     39 H9           0.4740     0.8510    -1.0630 h1         1 NUZ       0.066950
     40 H10          1.1990    -0.7420    -1.2450 h1         1 NUZ       0.066950
     41 H11         -1.2390    -0.7510    -1.5960 h1         1 NUZ       0.051950
     42 H12         -0.7620    -1.8240    -0.2720 h1         1 NUZ       0.051950
     43 H13          0.6430     0.6750     2.6430 h1         1 NUZ       0.066950
     44 H14          0.1310     1.7390     1.3290 h1         1 NUZ       0.066950
     45 H15         -1.0620    -0.9770     2.0550 h1         1 NUZ       0.051950
     46 H16         -1.7960     0.5990     2.3200 h1         1 NUZ       0.051950
     47 H17         -5.9460     1.5550     0.8120 ha         1 NUZ       0.184000
     48 H18         -3.0110    -2.0720    -0.7910 ha         1 NUZ       0.146000
     49 H19         -5.4100    -2.2910    -1.0360 ha         1 NUZ       0.172000
@<TRIPOS>BOND
     1     1     2 ar  
     2     1     6 ar  
     3     1    31 1   
     4     2     3 ar  
     5     2    32 1   
     6     3     4 ar  
     7     3    33 1   
     8     4     5 ar  
     9     4    34 1   
    10     5     6 ar  
    11     5    35 1   
    12     6     7 1   
    13     7     8 2   
    14     7    12 1   
    15     8     9 1   
    16     9    10 1   
    17    10    11 1   
    18    10    12 2   
    19    11    36 1   
    20    11    37 1   
    21    11    38 1   
    22    12    13 1   
    23    13    14 2   
    24    13    15 1   
    25    15    16 1   
    26    15    18 1   
    27    16    17 1   
    28    16    39 1   
    29    16    40 1   
    30    17    20 1   
    31    17    41 1   
    32    17    42 1   
    33    18    19 1   
    34    18    43 1   
    35    18    44 1   
    36    19    20 1   
    37    19    45 1   
    38    19    46 1   
    39    20    21 1   
    40    21    22 ar  
    41    21    25 ar  
    42    22    23 ar  
    43    22    24 1   
    44    23    27 ar  
    45    23    47 1   
    46    25    26 ar  
    47    25    48 1   
    48    26    27 ar  
    49    26    49 1   
    50    27    28 1   
    51    28    29 1   
    52    28    30 1   
@<TRIPOS>SUBSTRUCTURE
     1 NUZ         1 TEMP              0 ****  ****    0 ROOT
