@<TRIPOS>MOLECULE
NV0
   49    51     1     0     0
SMALL
abcg2


@<TRIPOS>ATOM
      1 C10         -2.1180    -3.2990    84.7860 c          1 NV0       0.594600
      2 C15         -4.4890    -3.3290    85.4090 c3         1 NV0       0.100000
      3 C17         -1.6100     0.0450    87.4040 c3         1 NV0       0.085300
      4 C20          5.1650    -6.0300    83.2780 c6         1 NV0      -0.074200
      5 C21          4.2100    -7.0860    83.8170 c6         1 NV0      -0.063400
      6 C22          3.6280    -6.6180    85.1420 c6         1 NV0      -0.181400
      7 C26         -5.2860    -2.6730    84.2860 c3         1 NV0      -0.095400
      8 C1           1.5750    -2.5890    84.4820 ca         1 NV0      -0.178600
      9 C2           1.6770    -1.4740    85.3120 ca         1 NV0      -0.001000
     10 C3           0.5850    -0.9850    85.9930 ca         1 NV0      -0.186000
     11 C4          -0.6600    -1.5990    85.8280 ca         1 NV0       0.142600
     12 C5          -0.7890    -2.7000    84.9540 ca         1 NV0      -0.214600
     13 C6           0.3410    -3.2060    84.2670 ca         1 NV0       0.084700
     14 C8          -3.0210    -1.6550    86.3980 c          1 NV0       0.620000
     15 C11          0.2450    -4.3570    83.3040 c3         1 NV0      -0.059800
     16 C12          2.8370    -3.0180    83.8110 c          1 NV0       0.639900
     17 C18          3.4390    -4.3240    84.0240 ce         1 NV0      -0.482400
     18 C19          4.5230    -4.6870    83.2240 c2         1 NV0       0.281900
     19 C23          2.9930    -5.2420    85.0820 c          1 NV0       0.604300
     20 C27         -6.6670    -3.3080    84.1410 c3         1 NV0      -0.086100
     21 N7          -1.7630    -1.1100    86.5170 n          1 NV0      -0.306000
     22 N9          -3.1440    -2.7480    85.5530 n          1 NV0      -0.374400
     23 O13         -2.3730    -4.2340    84.0390 o          1 NV0      -0.534000
     24 O14          3.3800    -2.1830    83.0540 o          1 NV0      -0.604100
     25 O16         -3.9900    -1.2100    87.0000 o          1 NV0      -0.563000
     26 O24          5.0510    -3.8590    82.3610 oh         1 NV0      -0.542100
     27 O25          2.1740    -4.9230    85.9360 o          1 NV0      -0.539100
     28 H1          -4.9980    -3.2070    86.3610 h1         1 NV0       0.072200
     29 H2          -4.3570    -4.3900    85.2120 h1         1 NV0       0.072200
     30 H3          -2.5760     0.2620    87.8400 h1         1 NV0       0.059033
     31 H4          -0.8960    -0.1830    88.1950 h1         1 NV0       0.059033
     32 H5          -1.2610     0.9090    86.8390 h1         1 NV0       0.059033
     33 H7           6.0450    -5.9440    83.9290 hc         1 NV0       0.081200
     34 H8           3.4070    -7.2530    83.0950 hc         1 NV0       0.057700
     35 H9           4.7360    -8.0330    83.9450 hc         1 NV0       0.057700
     36 H10          2.8740    -7.3050    85.5270 hc         1 NV0       0.073700
     37 H11          4.4200    -6.5600    85.8980 hc         1 NV0       0.073700
     38 H12         -4.7290    -2.7700    83.3510 hc         1 NV0       0.050700
     39 H13         -5.3830    -1.6050    84.4950 hc         1 NV0       0.050700
     40 H14          2.6400    -0.9960    85.4430 ha         1 NV0       0.125000
     41 H15          0.7050    -0.1350    86.6440 ha         1 NV0       0.127000
     42 H16         -0.0880    -5.2640    83.8050 hc         1 NV0       0.060700
     43 H17         -0.4820    -4.1470    82.5210 hc         1 NV0       0.060700
     44 H18          1.2060    -4.5530    82.8350 hc         1 NV0       0.060700
     45 H19         -7.2330    -2.8330    83.3380 hc         1 NV0       0.034700
     46 H20         -6.5860    -4.3730    83.9100 hc         1 NV0       0.034700
     47 H21         -7.2430    -3.2080    85.0640 hc         1 NV0       0.034700
     48 H22          4.5360    -2.9840    82.4580 ho         1 NV0       0.548000
     49 H6           5.5350    -6.2690    82.2800 hc         1 NV0       0.081200
@<TRIPOS>BOND
     1     1    12 1   
     2     1    22 1   
     3     1    23 2   
     4     2     7 1   
     5     2    22 1   
     6     2    28 1   
     7     2    29 1   
     8     3    21 1   
     9     3    30 1   
    10     3    31 1   
    11     3    32 1   
    12     4     5 1   
    13     4    18 1   
    14     4    33 1   
    15     4    49 1   
    16     5     6 1   
    17     5    34 1   
    18     5    35 1   
    19     6    19 1   
    20     6    36 1   
    21     6    37 1   
    22     7    20 1   
    23     7    38 1   
    24     7    39 1   
    25     8     9 ar  
    26     8    13 ar  
    27     8    16 1   
    28     9    10 ar  
    29     9    40 1   
    30    10    11 ar  
    31    10    41 1   
    32    11    12 ar  
    33    11    21 1   
    34    12    13 ar  
    35    13    15 1   
    36    14    21 1   
    37    14    22 1   
    38    14    25 2   
    39    15    42 1   
    40    15    43 1   
    41    15    44 1   
    42    16    17 1   
    43    16    24 2   
    44    17    18 2   
    45    17    19 1   
    46    18    26 1   
    47    19    27 2   
    48    20    45 1   
    49    20    46 1   
    50    20    47 1   
    51    26    48 1   
@<TRIPOS>SUBSTRUCTURE
     1 NV0         1 TEMP              0 ****  ****    0 ROOT
