@<TRIPOS>MOLECULE
NV0
   49    51     1     0     0
SMALL
No Charge or Current Charge


@<TRIPOS>ATOM
      1 C10         -1.9550    -3.3550    84.9920 c          1 NV0       0.594600
      2 C15         -4.4190    -3.3860    85.3270 c3         1 NV0       0.100000
      3 C17         -1.7000     0.0570    87.6090 c3         1 NV0       0.085300
      4 C20          4.5240    -6.2480    82.9200 c6         1 NV0      -0.074200
      5 C21          3.6910    -7.1430    83.8600 c6         1 NV0      -0.063400
      6 C22          3.6940    -6.5400    85.2790 c6         1 NV0      -0.181400
      7 C26         -5.1330    -2.9140    84.0430 c3         1 NV0      -0.095400
      8 C1           1.7850    -2.3800    84.6830 ca         1 NV0      -0.178600
      9 C2           1.7890    -1.2180    85.4660 ca         1 NV0      -0.001000
     10 C3           0.6180    -0.7730    86.0780 ca         1 NV0      -0.186000
     11 C4          -0.5780    -1.5120    85.9770 ca         1 NV0       0.142600
     12 C5          -0.6260    -2.6410    85.1310 ca         1 NV0      -0.214600
     13 C6           0.5620    -3.0640    84.4450 ca         1 NV0       0.084700
     14 C8          -3.0470    -1.5640    86.2970 c          1 NV0       0.620000
     15 C11          0.5260    -4.1760    83.3840 c3         1 NV0      -0.059800
     16 C12          3.1110    -2.8100    84.1100 c          1 NV0       0.639900
     17 C18          3.5470    -4.2350    84.1320 ce         1 NV0      -0.482400
     18 C19          4.1510    -4.7790    83.0520 c2         1 NV0       0.281900
     19 C23          3.1810    -5.0960    85.2940 c          1 NV0       0.604300
     20 C27         -6.5030    -3.5860    83.8340 c3         1 NV0      -0.086100
     21 N7          -1.7840    -1.0150    86.5770 n          1 NV0      -0.306000
     22 N9          -3.0920    -2.7260    85.5200 n          1 NV0      -0.374400
     23 O13         -2.0550    -4.4560    84.4680 o          1 NV0      -0.534000
     24 O14          3.7750    -2.0050    83.4660 o          1 NV0      -0.604100
     25 O16         -4.0720    -1.0560    86.7350 o          1 NV0      -0.563000
     26 O24          4.4910    -4.0640    81.9750 oh         1 NV0      -0.542100
     27 O25          2.5250    -4.6900    86.2400 o          1 NV0      -0.539100
     28 H1          -5.0670    -3.1880    86.1900 h1         1 NV0       0.072200
     29 H2          -4.3010    -4.4770    85.2930 h1         1 NV0       0.072200
     30 H3          -2.6010     0.0930    88.2350 h1         1 NV0       0.059033
     31 H4          -0.8500    -0.1320    88.2760 h1         1 NV0       0.059033
     32 H5          -1.5700     1.0300    87.1200 h1         1 NV0       0.059033
     33 H7           5.5930    -6.3620    83.1470 hc         1 NV0       0.081200
     34 H8           2.6590    -7.2150    83.4900 hc         1 NV0       0.057700
     35 H9           4.0970    -8.1640    83.8730 hc         1 NV0       0.057700
     36 H10          3.1420    -7.1470    86.0080 hc         1 NV0       0.073700
     37 H11          4.7410    -6.4960    85.6050 hc         1 NV0       0.073700
     38 H12         -4.4940    -3.1250    83.1760 hc         1 NV0       0.050700
     39 H13         -5.2690    -1.8260    84.0830 hc         1 NV0       0.050700
     40 H14          2.7110    -0.6570    85.6080 ha         1 NV0       0.125000
     41 H15          0.6720     0.1460    86.6530 ha         1 NV0       0.127000
     42 H16          0.5100    -5.1700    83.8450 hc         1 NV0       0.060700
     43 H17         -0.3500    -4.0800    82.7340 hc         1 NV0       0.060700
     44 H18          1.3730    -4.1370    82.6930 hc         1 NV0       0.060700
     45 H19         -6.9720    -3.2210    82.9120 hc         1 NV0       0.034700
     46 H20         -6.3940    -4.6740    83.7560 hc         1 NV0       0.034700
     47 H21         -7.1760    -3.3640    84.6710 hc         1 NV0       0.034700
     48 H22          4.3320    -3.1230    82.2440 ho         1 NV0       0.548000
     49 H6           4.3920    -6.5810    81.8810 hc         1 NV0       0.081200
@<TRIPOS>BOND
     1     1    12 1   
     2     1    22 1   
     3     1    23 2   
     4     2     7 1   
     5     2    22 1   
     6     2    28 1   
     7     2    29 1   
     8     3    21 1   
     9     3    30 1   
    10     3    31 1   
    11     3    32 1   
    12     4     5 1   
    13     4    18 1   
    14     4    33 1   
    15     4    49 1   
    16     5     6 1   
    17     5    34 1   
    18     5    35 1   
    19     6    19 1   
    20     6    36 1   
    21     6    37 1   
    22     7    20 1   
    23     7    38 1   
    24     7    39 1   
    25     8     9 ar  
    26     8    13 ar  
    27     8    16 1   
    28     9    10 ar  
    29     9    40 1   
    30    10    11 ar  
    31    10    41 1   
    32    11    12 ar  
    33    11    21 1   
    34    12    13 ar  
    35    13    15 1   
    36    14    21 1   
    37    14    22 1   
    38    14    25 2   
    39    15    42 1   
    40    15    43 1   
    41    15    44 1   
    42    16    17 1   
    43    16    24 2   
    44    17    18 2   
    45    17    19 1   
    46    18    26 1   
    47    19    27 2   
    48    20    45 1   
    49    20    46 1   
    50    20    47 1   
    51    26    48 1   
@<TRIPOS>SUBSTRUCTURE
     1 NV0         1 TEMP              0 ****  ****    0 ROOT
