@<TRIPOS>MOLECULE
NV1
   36    36     1     0     0
SMALL
abcg2


@<TRIPOS>ATOM
      1 N1           3.8510    -0.8980     1.0930 n8         1 NV1      -0.975200
      2 C2          -2.8880     0.2170     1.1010 ca         1 NV1      -0.116500
      3 C4          -2.6560    -1.5090    -0.5430 ca         1 NV1      -0.116500
      4 C5          -1.3120    -1.1920    -0.7140 ca         1 NV1      -0.059300
      5 C7          -0.7740    -0.1260     0.0180 ca         1 NV1      -0.037000
      6 C1          -1.5460     0.5660     0.9560 ca         1 NV1      -0.059300
      7 C10         -0.1060     1.3840    -2.2940 c3         1 NV1      -0.108100
      8 C11          1.5250    -0.4850     0.4770 c          1 NV1       0.600100
      9 C12          2.9870    -0.2310     0.1450 c3         1 NV1       0.074800
     10 C3          -3.4450    -0.8030     0.3500 ca         1 NV1      -0.101000
     11 C9           1.1690     2.6440    -0.5520 c3         1 NV1      -0.108100
     12 N            0.5900     0.2330    -0.1990 n          1 NV1      -0.255400
     13 O            1.2080    -1.3380     1.2900 o          1 NV1      -0.571100
     14 H19          3.7430    -1.9000     1.0080 hn         1 NV1       0.401500
     15 H18          4.8110    -0.7000     0.8450 hn         1 NV1       0.401500
     16 H3          -3.4970     0.7490     1.8230 ha         1 NV1       0.112000
     17 H5          -3.0840    -2.3250    -1.1130 ha         1 NV1       0.112000
     18 H6          -0.2220    -2.9790    -1.1520 hc         1 NV1       0.043367
     19 H7          -1.0300    -2.2810    -2.5460 hc         1 NV1       0.043367
     20 H8           0.4510    -1.5600    -1.9300 hc         1 NV1       0.043367
     21 H9           1.8650     0.9630    -1.6620 h1         1 NV1       0.041700
     22 H           -1.2510     2.6420     1.4570 hc         1 NV1       0.043367
     23 H2          -1.4120     1.5740     2.8370 hc         1 NV1       0.043367
     24 H1           0.0910     1.6100     1.9250 hc         1 NV1       0.043367
     25 H14         -1.0750     1.7120    -1.9170 hc         1 NV1       0.044533
     26 H13          0.2350     2.1240    -3.0190 hc         1 NV1       0.044533
     27 H15         -0.2450     0.4450    -2.8270 hc         1 NV1       0.044533
     28 H16          3.2010     0.8390     0.1740 h1         1 NV1       0.041700
     29 H17          3.1410    -0.5380    -0.9010 h1         1 NV1       0.041700
     30 H4          -4.4900    -1.0580     0.4730 ha         1 NV1       0.113000
     31 H11          1.8610     2.5950     0.2890 hc         1 NV1       0.044533
     32 H10          1.5970     3.3180    -1.2950 hc         1 NV1       0.044533
     33 H12          0.2390     3.0870    -0.1980 hc         1 NV1       0.044533
     34 C6          -0.4810    -2.0360    -1.6370 c3         1 NV1      -0.045300
     35 C8           0.9340     1.2760    -1.1870 c3         1 NV1       0.132700
     36 C           -0.9910     1.6510     1.8340 c3         1 NV1      -0.045300
@<TRIPOS>BOND
     1     1     9 1   
     2     1    14 1   
     3     1    15 1   
     4     2     6 ar  
     5     2    10 ar  
     6     2    16 1   
     7     3     4 ar  
     8     3    10 ar  
     9     3    17 1   
    10     4     5 ar  
    11     4    34 1   
    12     5     6 ar  
    13     5    12 1   
    14     6    36 1   
    15     7    25 1   
    16     7    26 1   
    17     7    27 1   
    18     7    35 1   
    19     8     9 1   
    20     8    12 1   
    21     8    13 2   
    22     9    28 1   
    23     9    29 1   
    24    10    30 1   
    25    11    31 1   
    26    11    32 1   
    27    11    33 1   
    28    11    35 1   
    29    12    35 1   
    30    18    34 1   
    31    19    34 1   
    32    20    34 1   
    33    21    35 1   
    34    22    36 1   
    35    23    36 1   
    36    24    36 1   
@<TRIPOS>SUBSTRUCTURE
     1 NV1         1 TEMP              0 ****  ****    0 ROOT
