@<TRIPOS>MOLECULE
NV1
   36    36     1     0     0
SMALL
No Charge or Current Charge


@<TRIPOS>ATOM
      1 N1           4.1160    -0.8060     1.1650 n8         1 NV1      -0.975200
      2 C2          -2.9390     0.1970     1.1760 ca         1 NV1      -0.116500
      3 C4          -2.7450    -1.5330    -0.5140 ca         1 NV1      -0.116500
      4 C5          -1.3970    -1.1970    -0.7390 ca         1 NV1      -0.059300
      5 C7          -0.8270    -0.0910    -0.0190 ca         1 NV1      -0.037000
      6 C1          -1.5940     0.5620     0.9820 ca         1 NV1      -0.059300
      7 C10         -0.0450     1.3790    -2.3990 c3         1 NV1      -0.108100
      8 C11          1.5700    -0.4660     0.5420 c          1 NV1       0.600100
      9 C12          3.0940    -0.1920     0.2430 c3         1 NV1       0.074800
     10 C3          -3.5150    -0.8350     0.4240 ca         1 NV1      -0.101000
     11 C9           1.1510     2.6500    -0.5860 c3         1 NV1      -0.108100
     12 N            0.5700     0.2230    -0.2040 n          1 NV1      -0.255400
     13 O            1.2460    -1.2900     1.3960 o          1 NV1      -0.571100
     14 H19          4.0020    -1.8290     1.1670 hn         1 NV1       0.401500
     15 H18          5.0590    -0.6640     0.7820 hn         1 NV1       0.401500
     16 H3          -3.5390     0.7100     1.9240 ha         1 NV1       0.112000
     17 H5          -3.1980    -2.3530    -1.0680 ha         1 NV1       0.112000
     18 H6          -0.6910    -3.1330    -1.4950 hc         1 NV1       0.043367
     19 H7          -1.0610    -1.9620    -2.7690 hc         1 NV1       0.043367
     20 H8           0.4320    -1.8160    -1.8350 hc         1 NV1       0.043367
     21 H9           1.9050     0.9580    -1.6740 h1         1 NV1       0.041700
     22 H           -1.2590     2.6510     1.4860 hc         1 NV1       0.043367
     23 H2          -1.4390     1.5960     2.8890 hc         1 NV1       0.043367
     24 H1           0.0690     1.5850     1.9880 hc         1 NV1       0.043367
     25 H14         -1.0400     1.6860    -2.0540 hc         1 NV1       0.044533
     26 H13          0.3060     2.1260    -3.1210 hc         1 NV1       0.044533
     27 H15         -0.1390     0.4280    -2.9340 hc         1 NV1       0.044533
     28 H16          3.2570     0.8930     0.2460 h1         1 NV1       0.041700
     29 H17          3.2920    -0.5550    -0.7750 h1         1 NV1       0.041700
     30 H4          -4.5550    -1.1100     0.5870 ha         1 NV1       0.113000
     31 H11          1.7930     2.6000     0.3010 hc         1 NV1       0.044533
     32 H10          1.6220     3.3320    -1.3040 hc         1 NV1       0.044533
     33 H12          0.1920     3.0880    -0.2910 hc         1 NV1       0.044533
     34 C6          -0.6310    -2.0720    -1.7670 c3         1 NV1      -0.045300
     35 C8           0.9520     1.2550    -1.2200 c3         1 NV1       0.132700
     36 C           -1.0180     1.6560     1.8780 c3         1 NV1      -0.045300
@<TRIPOS>BOND
     1     1     9 1   
     2     1    14 1   
     3     1    15 1   
     4     2     6 ar  
     5     2    10 ar  
     6     2    16 1   
     7     3     4 ar  
     8     3    10 ar  
     9     3    17 1   
    10     4     5 ar  
    11     4    34 1   
    12     5     6 ar  
    13     5    12 1   
    14     6    36 1   
    15     7    25 1   
    16     7    26 1   
    17     7    27 1   
    18     7    35 1   
    19     8     9 1   
    20     8    12 1   
    21     8    13 2   
    22     9    28 1   
    23     9    29 1   
    24    10    30 1   
    25    11    31 1   
    26    11    32 1   
    27    11    33 1   
    28    11    35 1   
    29    12    35 1   
    30    18    34 1   
    31    19    34 1   
    32    20    34 1   
    33    21    35 1   
    34    22    36 1   
    35    23    36 1   
    36    24    36 1   
@<TRIPOS>SUBSTRUCTURE
     1 NV1         1 TEMP              0 ****  ****    0 ROOT
