@<TRIPOS>MOLECULE
NV2
   61    64     1     0     0
SMALL
abcg2


@<TRIPOS>ATOM
      1 C15         -2.7610    -1.1390    -3.2880 c3         1 NV2       0.144900
      2 C20         -0.7810     0.6080    -0.0030 cc         1 NV2       0.509100
      3 C22          1.3500     0.6380     0.1200 ca         1 NV2       0.096400
      4 C26          3.2410    -1.3530     0.3170 ca         1 NV2      -0.143000
      5 C28          1.9070    -1.7220     0.2610 ca         1 NV2      -0.089000
      6 C01         -2.7520    -4.2120     2.3130 c3         1 NV2       0.144900
      7 O05         -2.1980    -3.7030     1.1250 os         1 NV2      -0.453500
      8 C06         -1.6920    -2.4060     1.2770 c3         1 NV2       0.144100
      9 C09         -1.1850    -1.9290    -0.0790 c3         1 NV2       0.096300
     10 C11         -2.3030    -1.8210    -1.1070 c3         1 NV2       0.144100
     11 O14         -1.7950    -1.2340    -2.2710 os         1 NV2      -0.453500
     12 N19         -0.4090    -0.7060     0.0700 na         1 NV2      -0.168600
     13 N21          0.2330     1.4320     0.0240 nd         1 NV2      -0.578100
     14 C23          2.6900     0.9990     0.2030 ca         1 NV2      -0.090000
     15 C25          3.6540    -0.0030     0.2970 ca         1 NV2       0.260000
     16 C30          0.9670    -0.7080     0.1570 ca         1 NV2      -0.101200
     17 N31          5.0090     0.3510     0.3950 nh         1 NV2      -0.781400
     18 C32          5.5190     1.2460    -0.6350 c6         1 NV2       0.155800
     19 C35          6.8770     1.7860    -0.2320 c6         1 NV2       0.149100
     20 O38          7.7920     0.7480     0.0350 os         1 NV2      -0.447000
     21 C39          7.3030    -0.0890     1.0580 c6         1 NV2       0.149100
     22 C42          5.9610    -0.6990     0.6980 c6         1 NV2       0.155800
     23 C45         -2.1720     1.0650    -0.0900 cc         1 NV2      -0.232600
     24 C46         -3.0900     0.9390     0.9840 cc         1 NV2      -0.085000
     25 C48         -4.3690     1.3870     0.8820 cd         1 NV2      -0.210400
     26 C49         -5.3620     1.2770     1.9920 c3         1 NV2      -0.030900
     27 C53         -4.8190     2.0130    -0.3430 c          1 NV2       0.545200
     28 O54         -5.9560     2.4400    -0.5200 o          1 NV2      -0.555000
     29 N55         -3.8720     2.1210    -1.3530 n          1 NV2      -0.269000
     30 C56         -4.2980     2.7400    -2.6020 c3         1 NV2       0.075300
     31 C60         -2.6040     1.6730    -1.2250 cd         1 NV2       0.011600
     32 H1          -2.3120    -0.6160    -4.1310 h1         1 NV2       0.032200
     33 H2          -3.1000    -2.1240    -3.6260 h1         1 NV2       0.032200
     34 H3          -3.6440    -0.5750    -2.9620 h1         1 NV2       0.032200
     35 H4           3.9760    -2.1430     0.3700 ha         1 NV2       0.112000
     36 H5           1.6350    -2.7690     0.2880 ha         1 NV2       0.118000
     37 H6          -2.0120    -4.2700     3.1200 h1         1 NV2       0.032200
     38 H7          -3.5910    -3.6020     2.6660 h1         1 NV2       0.032200
     39 H8          -3.1180    -5.2170     2.1080 h1         1 NV2       0.032200
     40 H9          -2.4690    -1.7250     1.6520 h1         1 NV2       0.040200
     41 H10         -0.8660    -2.3800     2.0020 h1         1 NV2       0.040200
     42 H11         -0.4760    -2.6730    -0.4510 h1         1 NV2       0.083700
     43 H12         -2.6700    -2.8370    -1.3020 h1         1 NV2       0.040200
     44 H13         -3.1540    -1.2520    -0.7120 h1         1 NV2       0.040200
     45 H14          2.9650     2.0470     0.2070 ha         1 NV2       0.132000
     46 H15          5.5950     0.7280    -1.6040 h1         1 NV2       0.045700
     47 H16          4.8450     2.0910    -0.7720 h1         1 NV2       0.045700
     48 H17          7.2900     2.3880    -1.0430 h1         1 NV2       0.052200
     49 H18          6.7630     2.4340     0.6480 h1         1 NV2       0.052200
     50 H19          8.0360    -0.8810     1.2130 h1         1 NV2       0.052200
     51 H20          7.2040     0.4720     1.9990 h1         1 NV2       0.052200
     52 H21          5.6140    -1.2780     1.5560 h1         1 NV2       0.045700
     53 H22          6.0900    -1.4010    -0.1420 h1         1 NV2       0.045700
     54 H23         -2.7560     0.4930     1.9140 ha         1 NV2       0.188000
     55 H24         -5.7160     2.2600     2.3080 hc         1 NV2       0.046700
     56 H25         -6.2400     0.7080     1.6830 hc         1 NV2       0.046700
     57 H26         -4.9260     0.7810     2.8580 hc         1 NV2       0.046700
     58 H27         -4.5980     3.7720    -2.4360 h1         1 NV2       0.056033
     59 H28         -3.4700     2.7200    -3.3040 h1         1 NV2       0.056033
     60 H29         -5.1360     2.1940    -3.0280 h1         1 NV2       0.056033
     61 H30         -1.9570     1.8110    -2.0800 h4         1 NV2       0.217000
@<TRIPOS>BOND
     1     1    11 1   
     2     1    32 1   
     3     1    33 1   
     4     1    34 1   
     5     2    12 1   
     6     2    13 2   
     7     2    23 1   
     8     3    13 1   
     9     3    14 ar  
    10     3    16 ar  
    11     4     5 ar  
    12     4    15 ar  
    13     4    35 1   
    14     5    16 ar  
    15     5    36 1   
    16     6     7 1   
    17     6    37 1   
    18     6    38 1   
    19     6    39 1   
    20     7     8 1   
    21     8     9 1   
    22     8    40 1   
    23     8    41 1   
    24     9    10 1   
    25     9    12 1   
    26     9    42 1   
    27    10    11 1   
    28    10    43 1   
    29    10    44 1   
    30    12    16 1   
    31    14    15 ar  
    32    14    45 1   
    33    15    17 1   
    34    17    18 1   
    35    17    22 1   
    36    18    19 1   
    37    18    46 1   
    38    18    47 1   
    39    19    20 1   
    40    19    48 1   
    41    19    49 1   
    42    20    21 1   
    43    21    22 1   
    44    21    50 1   
    45    21    51 1   
    46    22    52 1   
    47    22    53 1   
    48    23    24 1   
    49    23    31 2   
    50    24    25 2   
    51    24    54 1   
    52    25    26 1   
    53    25    27 1   
    54    26    55 1   
    55    26    56 1   
    56    26    57 1   
    57    27    28 2   
    58    27    29 1   
    59    29    30 1   
    60    29    31 1   
    61    30    58 1   
    62    30    59 1   
    63    30    60 1   
    64    31    61 1   
@<TRIPOS>SUBSTRUCTURE
     1 NV2         1 TEMP              0 ****  ****    0 ROOT
