@<TRIPOS>MOLECULE
NV2
   61    64     1     0     0
SMALL
No Charge or Current Charge


@<TRIPOS>ATOM
      1 C15         -2.6620    -1.4580    -3.2440 c3         1 NV2       0.144900
      2 C20         -0.9100     0.6450    -0.1450 cc         1 NV2       0.509100
      3 C22          1.2500     0.5600    -0.1410 ca         1 NV2       0.096400
      4 C26          3.1160    -1.2710     0.8150 ca         1 NV2      -0.143000
      5 C28          1.7400    -1.5580     0.9170 ca         1 NV2      -0.089000
      6 C01         -2.4010    -4.6660     2.5160 c3         1 NV2       0.144900
      7 O05         -1.9710    -3.9660     1.3360 os         1 NV2      -0.453500
      8 C06         -1.6690    -2.5740     1.5430 c3         1 NV2       0.144100
      9 C09         -1.2060    -1.9660     0.1930 c3         1 NV2       0.096300
     10 C11         -2.2690    -2.0810    -0.9390 c3         1 NV2       0.144100
     11 O14         -1.7390    -1.4950    -2.1440 os         1 NV2      -0.453500
     12 N19         -0.5360    -0.6330     0.3510 na         1 NV2      -0.168600
     13 N21          0.1790     1.3510    -0.5190 nd         1 NV2      -0.578100
     14 C23          2.6120     0.8640    -0.2570 ca         1 NV2      -0.090000
     15 C25          3.5670    -0.0610     0.2230 ca         1 NV2       0.260000
     16 C30          0.8340    -0.6100     0.4180 ca         1 NV2      -0.101200
     17 N31          4.9510     0.2320     0.1180 nh         1 NV2      -0.781400
     18 C32          5.5450     0.6290    -1.2020 c6         1 NV2       0.155800
     19 C35          6.8860     1.4060    -1.0400 c6         1 NV2       0.149100
     20 O38          7.8030     0.6790    -0.1890 os         1 NV2      -0.447000
     21 C39          7.2690     0.4580     1.1370 c6         1 NV2       0.149100
     22 C42          5.9460    -0.3620     1.0730 c6         1 NV2       0.155800
     23 C45         -2.2630     1.1760    -0.1960 cc         1 NV2      -0.232600
     24 C46         -3.3810     0.6030     0.5010 cc         1 NV2      -0.085000
     25 C48         -4.6340     1.1700     0.4050 cd         1 NV2      -0.210400
     26 C49         -5.8470     0.6030     1.1130 c3         1 NV2      -0.030900
     27 C53         -4.8670     2.4010    -0.4040 c          1 NV2       0.545200
     28 O54         -5.9700     2.9230    -0.5160 o          1 NV2      -0.555000
     29 N55         -3.7200     2.9400    -1.0300 n          1 NV2      -0.269000
     30 C56         -3.8810     4.1730    -1.8340 c3         1 NV2       0.075300
     31 C60         -2.4650     2.3430    -0.9120 cd         1 NV2       0.011600
     32 H1          -2.1880    -1.0060    -4.1240 h1         1 NV2       0.032200
     33 H2          -2.9910    -2.4700    -3.5130 h1         1 NV2       0.032200
     34 H3          -3.5470    -0.8600    -2.9890 h1         1 NV2       0.032200
     35 H4           3.8300    -1.9990     1.1850 ha         1 NV2       0.112000
     36 H5           1.4030    -2.4900     1.3650 ha         1 NV2       0.118000
     37 H6          -1.6230    -4.6380     3.2910 h1         1 NV2       0.032200
     38 H7          -3.3160    -4.2170     2.9240 h1         1 NV2       0.032200
     39 H8          -2.6110    -5.7170     2.2810 h1         1 NV2       0.032200
     40 H9          -2.5470    -2.0480     1.9310 h1         1 NV2       0.040200
     41 H10         -0.8620    -2.4670     2.2790 h1         1 NV2       0.040200
     42 H11         -0.4150    -2.6430    -0.1510 h1         1 NV2       0.083700
     43 H12         -2.4960    -3.1420    -1.1070 h1         1 NV2       0.040200
     44 H13         -3.2070    -1.5980    -0.6490 h1         1 NV2       0.040200
     45 H14          2.9230     1.8080    -0.6910 ha         1 NV2       0.132000
     46 H15          5.7300    -0.2700    -1.8080 h1         1 NV2       0.045700
     47 H16          4.8490     1.2610    -1.7720 h1         1 NV2       0.045700
     48 H17          7.3500     1.5570    -2.0240 h1         1 NV2       0.052200
     49 H18          6.6930     2.3950    -0.6000 h1         1 NV2       0.052200
     50 H19          8.0130    -0.0810     1.7410 h1         1 NV2       0.052200
     51 H20          7.0820     1.4300     1.6170 h1         1 NV2       0.052200
     52 H21          5.5200    -0.4070     2.0860 h1         1 NV2       0.045700
     53 H22          6.1840    -1.3930     0.7710 h1         1 NV2       0.045700
     54 H23         -3.2360    -0.2590     1.1350 ha         1 NV2       0.188000
     55 H24         -6.2690     1.3290     1.8170 hc         1 NV2       0.046700
     56 H25         -6.6320     0.3320     0.3970 hc         1 NV2       0.046700
     57 H26         -5.5980    -0.3010     1.6830 hc         1 NV2       0.046700
     58 H27         -4.2730     4.9790    -1.2000 h1         1 NV2       0.056033
     59 H28         -2.9210     4.4940    -2.2570 h1         1 NV2       0.056033
     60 H29         -4.5840     3.9890    -2.6560 h1         1 NV2       0.056033
     61 H30         -1.6810     2.8700    -1.4510 h4         1 NV2       0.217000
@<TRIPOS>BOND
     1     1    11 1   
     2     1    32 1   
     3     1    33 1   
     4     1    34 1   
     5     2    12 1   
     6     2    13 2   
     7     2    23 1   
     8     3    13 1   
     9     3    14 ar  
    10     3    16 ar  
    11     4     5 ar  
    12     4    15 ar  
    13     4    35 1   
    14     5    16 ar  
    15     5    36 1   
    16     6     7 1   
    17     6    37 1   
    18     6    38 1   
    19     6    39 1   
    20     7     8 1   
    21     8     9 1   
    22     8    40 1   
    23     8    41 1   
    24     9    10 1   
    25     9    12 1   
    26     9    42 1   
    27    10    11 1   
    28    10    43 1   
    29    10    44 1   
    30    12    16 1   
    31    14    15 ar  
    32    14    45 1   
    33    15    17 1   
    34    17    18 1   
    35    17    22 1   
    36    18    19 1   
    37    18    46 1   
    38    18    47 1   
    39    19    20 1   
    40    19    48 1   
    41    19    49 1   
    42    20    21 1   
    43    21    22 1   
    44    21    50 1   
    45    21    51 1   
    46    22    52 1   
    47    22    53 1   
    48    23    24 1   
    49    23    31 2   
    50    24    25 2   
    51    24    54 1   
    52    25    26 1   
    53    25    27 1   
    54    26    55 1   
    55    26    56 1   
    56    26    57 1   
    57    27    28 2   
    58    27    29 1   
    59    29    30 1   
    60    29    31 1   
    61    30    58 1   
    62    30    59 1   
    63    30    60 1   
    64    31    61 1   
@<TRIPOS>SUBSTRUCTURE
     1 NV2         1 TEMP              0 ****  ****    0 ROOT
