@<TRIPOS>MOLECULE
NV3
   40    42     1     0     0
SMALL
abcg2


@<TRIPOS>ATOM
      1 C13          0.0210    17.6960   -15.2360 ca         1 NV3      -0.068000
      2 C15         -0.5590    19.5680   -16.6630 ca         1 NV3      -0.016000
      3 C17         -1.0870    21.4560   -18.0840 ca         1 NV3      -0.086000
      4 C20         -2.0010    19.2800   -18.6090 ca         1 NV3      -0.060000
      5 C21         -1.3490    18.7420   -17.4900 ca         1 NV3      -0.030000
      6 C22         -1.4560    17.3450   -17.1680 ca         1 NV3       0.079000
      7 C01         -2.2200    17.5820   -22.4650 c3         1 NV3      -0.082433
      8 C02         -3.3390    16.6500   -22.0000 c3         1 NV3      -0.142000
      9 C03         -4.5610    17.4830   -21.6050 c3         1 NV3      -0.082433
     10 C04         -3.7290    15.7000   -23.1450 c3         1 NV3      -0.082433
     11 C05         -2.8320    15.7580   -20.8670 c          1 NV3       0.588100
     12 C07         -3.8570    15.2810   -19.8550 c3         1 NV3      -0.088400
     13 C09         -2.2560    15.2800   -17.6290 ca         1 NV3       0.240300
     14 C11         -0.9170    15.4590   -15.8260 ca         1 NV3       0.142900
     15 C12         -0.7690    16.8390   -16.0550 ca         1 NV3      -0.155000
     16 C14          0.1170    19.0140   -15.5300 ca         1 NV3      -0.102000
     17 C16         -0.4500    20.9340   -16.9860 ca         1 NV3      -0.100000
     18 C18         -1.8600    20.6130   -18.8940 ca         1 NV3       0.108000
     19 N10         -1.6410    14.6840   -16.5930 nb         1 NV3      -0.158000
     20 N23         -2.2040    16.5460   -17.9420 nb         1 NV3      -0.200000
     21 O06         -1.6820    15.4010   -20.8120 o          1 NV3      -0.495100
     22 S08         -3.2030    14.1730   -18.6010 ss         1 NV3      -0.246300
     23 CL1         -2.6480    21.2760   -20.2860 cl         1 NV3      -0.200000
     24 H1           0.5380    17.2770   -14.3820 ha         1 NV3       0.121000
     25 H2          -0.9920    22.5060   -18.3250 ha         1 NV3       0.131000
     26 H3          -2.6020    18.6360   -19.2340 ha         1 NV3       0.147000
     27 H4          -1.9120    18.2640   -21.6710 hc         1 NV3       0.041256
     28 H5          -1.3430    17.0310   -22.8020 hc         1 NV3       0.041256
     29 H6          -2.5750    18.1860   -23.3020 hc         1 NV3       0.041256
     30 H7          -4.3490    18.1540   -20.7700 hc         1 NV3       0.041256
     31 H8          -4.8600    18.1020   -22.4520 hc         1 NV3       0.041256
     32 H9          -5.4200    16.8680   -21.3370 hc         1 NV3       0.041256
     33 H10         -4.5220    15.0090   -22.8530 hc         1 NV3       0.041256
     34 H11         -4.0970    16.2840   -23.9890 hc         1 NV3       0.041256
     35 H12         -2.8750    15.1150   -23.4870 hc         1 NV3       0.041256
     36 H13         -4.3380    16.1340   -19.3760 h1         1 NV3       0.098200
     37 H14         -4.6490    14.7270   -20.3670 h1         1 NV3       0.098200
     38 H15         -0.4150    14.9940   -14.9820 h4         1 NV3       0.027100
     39 H16          0.7160    19.6720   -14.9140 ha         1 NV3       0.120000
     40 H17          0.1500    21.5800   -16.3590 ha         1 NV3       0.121000
@<TRIPOS>BOND
     1     1    15 ar  
     2     1    16 ar  
     3     1    24 1   
     4     2     5 ar  
     5     2    16 ar  
     6     2    17 ar  
     7     3    17 ar  
     8     3    18 ar  
     9     3    25 1   
    10     4     5 ar  
    11     4    18 ar  
    12     4    26 1   
    13     5     6 ar  
    14     6    15 ar  
    15     6    20 ar  
    16     7     8 1   
    17     7    27 1   
    18     7    28 1   
    19     7    29 1   
    20     8     9 1   
    21     8    10 1   
    22     8    11 1   
    23     9    30 1   
    24     9    31 1   
    25     9    32 1   
    26    10    33 1   
    27    10    34 1   
    28    10    35 1   
    29    11    12 1   
    30    11    21 2   
    31    12    22 1   
    32    12    36 1   
    33    12    37 1   
    34    13    19 ar  
    35    13    20 ar  
    36    13    22 1   
    37    14    15 ar  
    38    14    19 ar  
    39    14    38 1   
    40    16    39 1   
    41    17    40 1   
    42    18    23 1   
@<TRIPOS>SUBSTRUCTURE
     1 NV3         1 TEMP              0 ****  ****    0 ROOT
