@<TRIPOS>MOLECULE
NV3
   40    42     1     0     0
SMALL
No Charge or Current Charge


@<TRIPOS>ATOM
      1 C13          0.3650    17.7440   -16.1250 ca         1 NV3      -0.068000
      2 C15         -0.8450    19.7310   -16.8390 ca         1 NV3      -0.016000
      3 C17         -2.0320    21.7420   -17.5410 ca         1 NV3      -0.086000
      4 C20         -3.0050    19.5500   -17.9550 ca         1 NV3      -0.060000
      5 C21         -1.8880    18.9220   -17.3540 ca         1 NV3      -0.030000
      6 C22         -1.8000    17.5090   -17.2620 ca         1 NV3       0.079000
      7 C01         -1.5870    16.2260   -22.8150 c3         1 NV3      -0.082433
      8 C02         -2.8390    16.3790   -21.9020 c3         1 NV3      -0.142000
      9 C03         -2.7320    17.7320   -21.1440 c3         1 NV3      -0.082433
     10 C04         -4.1090    16.3870   -22.7980 c3         1 NV3      -0.082433
     11 C05         -2.9180    15.1960   -20.8770 c          1 NV3       0.588100
     12 C07         -4.1850    15.0940   -19.9980 c3         1 NV3      -0.088400
     13 C09         -2.5990    15.3630   -17.6350 ca         1 NV3       0.240300
     14 C11         -0.5880    15.5350   -16.5520 ca         1 NV3       0.142900
     15 C12         -0.6640    16.9370   -16.6400 ca         1 NV3      -0.155000
     16 C14          0.2740    19.1390   -16.2270 ca         1 NV3      -0.102000
     17 C16         -0.9210    21.1340   -16.9350 ca         1 NV3      -0.100000
     18 C18         -3.0710    20.9490   -18.0490 ca         1 NV3       0.108000
     19 N10         -1.5560    14.7440   -17.0500 nb         1 NV3      -0.158000
     20 N23         -2.7630    16.6970   -17.7560 nb         1 NV3      -0.200000
     21 O06         -2.0240    14.3610   -20.7840 o          1 NV3      -0.495100
     22 S08         -3.8680    14.3180   -18.3360 ss         1 NV3      -0.246300
     23 Cl1         -4.4640    21.7100   -18.8070 cl         1 NV3      -0.200000
     24 H1           1.2340    17.2930   -15.6490 ha         1 NV3       0.121000
     25 H2          -2.0890    22.8250   -17.6160 ha         1 NV3       0.131000
     26 H3          -3.8310    18.9650   -18.3510 ha         1 NV3       0.147000
     27 H4          -0.6620    16.2400   -22.2240 hc         1 NV3       0.041256
     28 H5          -1.6190    15.2820   -23.3740 hc         1 NV3       0.041256
     29 H6          -1.5290    17.0440   -23.5440 hc         1 NV3       0.041256
     30 H7          -1.8750    17.7300   -20.4590 hc         1 NV3       0.041256
     31 H8          -2.5970    18.5630   -21.8470 hc         1 NV3       0.041256
     32 H9          -3.6350    17.9430   -20.5610 hc         1 NV3       0.041256
     33 H10         -5.0180    16.5720   -22.2120 hc         1 NV3       0.041256
     34 H11         -4.0440    17.1740   -23.5610 hc         1 NV3       0.041256
     35 H12         -4.2280    15.4270   -23.3150 hc         1 NV3       0.041256
     36 H13         -4.6000    16.0950   -19.8460 h1         1 NV3       0.098200
     37 H14         -4.9250    14.5000   -20.5460 h1         1 NV3       0.098200
     38 H15          0.2590    15.0360   -16.0830 h4         1 NV3       0.027100
     39 H16          1.0750    19.7580   -15.8300 ha         1 NV3       0.120000
     40 H17         -0.1200    21.7550   -16.5400 ha         1 NV3       0.121000
@<TRIPOS>BOND
     1     1    15 ar  
     2     1    16 ar  
     3     1    24 1   
     4     2     5 ar  
     5     2    16 ar  
     6     2    17 ar  
     7     3    17 ar  
     8     3    18 ar  
     9     3    25 1   
    10     4     5 ar  
    11     4    18 ar  
    12     4    26 1   
    13     5     6 ar  
    14     6    15 ar  
    15     6    20 ar  
    16     7     8 1   
    17     7    27 1   
    18     7    28 1   
    19     7    29 1   
    20     8     9 1   
    21     8    10 1   
    22     8    11 1   
    23     9    30 1   
    24     9    31 1   
    25     9    32 1   
    26    10    33 1   
    27    10    34 1   
    28    10    35 1   
    29    11    12 1   
    30    11    21 2   
    31    12    22 1   
    32    12    36 1   
    33    12    37 1   
    34    13    19 ar  
    35    13    20 ar  
    36    13    22 1   
    37    14    15 ar  
    38    14    19 ar  
    39    14    38 1   
    40    16    39 1   
    41    17    40 1   
    42    18    23 1   
@<TRIPOS>SUBSTRUCTURE
     1 NV3         1 TEMP              0 ****  ****    0 ROOT
