@<TRIPOS>MOLECULE
NV5
   50    54     1     0     0
SMALL
No Charge or Current Charge


@<TRIPOS>ATOM
      1 C4          94.1800    42.1480     9.7410 ca         1 NV5      -0.073000
      2 C5          92.9900    42.1870    10.5110 ca         1 NV5      -0.138000
      3 C6          91.9150    43.0260    10.1420 ca         1 NV5      -0.031000
      4 C7          92.0610    43.8210     8.9890 cp         1 NV5      -0.174500
      5 C10         90.2100    49.3260     6.0600 c3         1 NV5      -0.068400
      6 C13         91.7820    47.8820     9.8140 ca         1 NV5      -0.136500
      7 C15         94.0500    47.1980     9.2520 ca         1 NV5       0.103100
      8 C17         97.3020    45.7620     8.7730 ca         1 NV5      -0.178000
      9 C20         98.1370    48.3120     9.3370 ca         1 NV5       0.375900
     10 C21         94.0440    48.0990     8.1670 ca         1 NV5      -0.083500
     11 C22         92.9120    48.8960     7.9170 ca         1 NV5      -0.136500
     12 C3          94.3170    42.9500     8.5870 ca         1 NV5      -0.134000
     13 C9          89.9580    46.6050     6.8720 ca         1 NV5       0.186300
     14 C19         99.0650    47.3910     8.8240 ca         1 NV5      -0.197000
     15 C2          93.2380    43.7720     8.2480 ca         1 NV5      -0.001200
     16 C11         90.0140    50.0790     7.3890 c          1 NV5       0.624100
     17 C16         96.4330    46.7440     9.2740 ca         1 NV5       0.576300
     18 C14         92.9140    47.0890    10.0690 ca         1 NV5      -0.083500
     19 C12         91.7650    48.7750     8.7280 ca         1 NV5      -0.020000
     20 N1          93.0530    44.6830     7.1940 na         1 NV5      -0.194300
     21 C8          91.1740    44.7830     8.3450 cp         1 NV5       0.242500
     22 N2          89.9350    45.1500     8.7190 nb         1 NV5      -0.225000
     23 N3          89.3160    46.0850     7.9580 nb         1 NV5      -0.103000
     24 S1          89.0990    47.8450     5.9200 ss         1 NV5      -0.219300
     25 O1          89.2610    51.0440     7.4580 o          1 NV5      -0.565100
     26 N4          90.6120    49.5760     8.5350 ns         1 NV5      -0.160000
     27 C18         98.6470    46.0840     8.5350 ca         1 NV5      -0.047000
     28 N5          96.8420    48.0000     9.5660 nb         1 NV5      -0.737000
     29 N6          91.2010    46.2580     6.4520 nb         1 NV5      -0.204000
     30 C23         91.8030    45.3290     7.2190 ca         1 NV5       0.174500
     31 H1          94.9960    41.4940    10.0420 ha         1 NV5       0.116000
     32 H2          92.9020    41.5630    11.3980 ha         1 NV5       0.121000
     33 H3          91.0010    43.0590    10.7320 ha         1 NV5       0.135000
     34 H4          91.2510    49.0210     5.9310 h1         1 NV5       0.098700
     35 H5          89.9610    50.0270     5.2540 h1         1 NV5       0.098700
     36 H6          90.9090    47.7900    10.4580 ha         1 NV5       0.120500
     37 H8          98.4400    49.3310     9.5740 h4         1 NV5       0.022100
     38 H9          94.9140    48.1900     7.5220 ha         1 NV5       0.129500
     39 H10         92.9490    49.6190     7.1070 ha         1 NV5       0.120500
     40 H14         95.2240    42.9270     7.9890 ha         1 NV5       0.122000
     41 H15        100.0960    47.6950     8.6590 ha         1 NV5       0.129000
     42 H16         92.9120    46.3860    10.8980 ha         1 NV5       0.129500
     43 H17         90.2620    49.9900     9.3900 hn         1 NV5       0.158000
     44 H18         99.3420    45.3440     8.1420 ha         1 NV5       0.123000
     45 C1          94.1140    45.0220     6.2310 c3         1 NV5       0.066900
     46 O2          95.1300    46.3830     9.5150 os         1 NV5      -0.373400
     47 H7          96.9290    44.7630     8.5740 ha         1 NV5       0.140000
     48 H11         94.3640    44.1360     5.6350 h1         1 NV5       0.057033
     49 H12         93.7790    45.8240     5.5620 h1         1 NV5       0.057033
     50 H13         95.0070    45.3580     6.7720 h1         1 NV5       0.057033
@<TRIPOS>BOND
     1     1     2 ar  
     2     1    12 ar  
     3     1    31 1   
     4     2     3 ar  
     5     2    32 1   
     6     3     4 ar  
     7     3    33 1   
     8     4    15 ar  
     9     4    21 1   
    10     5    16 1   
    11     5    24 1   
    12     5    34 1   
    13     5    35 1   
    14     6    18 ar  
    15     6    19 ar  
    16     6    36 1   
    17     7    10 ar  
    18     7    18 ar  
    19     7    46 1   
    20     8    17 ar  
    21     8    27 ar  
    22     8    47 1   
    23     9    14 ar  
    24     9    28 ar  
    25     9    37 1   
    26    10    11 ar  
    27    10    38 1   
    28    11    19 ar  
    29    11    39 1   
    30    12    15 ar  
    31    12    40 1   
    32    13    23 ar  
    33    13    24 1   
    34    13    29 ar  
    35    14    27 ar  
    36    14    41 1   
    37    15    20 1   
    38    16    25 2   
    39    16    26 1   
    40    17    28 ar  
    41    17    46 1   
    42    18    42 1   
    43    19    26 1   
    44    20    30 1   
    45    20    45 1   
    46    21    22 ar  
    47    21    30 ar  
    48    22    23 ar  
    49    26    43 1   
    50    27    44 1   
    51    29    30 ar  
    52    45    48 1   
    53    45    49 1   
    54    45    50 1   
@<TRIPOS>SUBSTRUCTURE
     1 NV5         1 TEMP              0 ****  ****    0 ROOT
