@<TRIPOS>MOLECULE
NV5
   50    54     1     0     0
SMALL
bcc


@<TRIPOS>ATOM
      1 C4          90.6010    40.4790    10.1780 ca         1 NV5      -0.091000
      2 C5          89.3770    40.3100     9.5240 ca         1 NV5      -0.156000
      3 C6          88.8450    41.3220     8.7440 ca         1 NV5      -0.049000
      4 C7          89.5590    42.5080     8.6240 cp         1 NV5      -0.174500
      5 C10         91.0710    48.3840     6.8270 c3         1 NV5      -0.116300
      6 C13         94.3610    47.7800     9.2930 ca         1 NV5      -0.154500
      7 C15         96.1260    48.1590     7.7210 ca         1 NV5       0.103100
      8 C17         99.6820    48.4070     7.1830 ca         1 NV5      -0.261300
      9 C20         99.1420    50.5730     8.7340 ca         1 NV5       0.441200
     10 C21         95.2860    48.9520     6.9580 ca         1 NV5      -0.101500
     11 C22         93.9800    49.1660     7.3710 ca         1 NV5      -0.154500
     12 C3          91.3280    41.6550    10.0710 ca         1 NV5      -0.152000
     13 C9          89.5540    46.1230     6.9510 ca         1 NV5       0.712300
     14 C19        100.4480    50.3620     8.3380 ca         1 NV5      -0.280300
     15 C2          90.7910    42.6640     9.2860 ca         1 NV5      -0.001200
     16 C11         91.0070    48.6710     8.3170 c          1 NV5       0.691100
     17 C16         98.4050    48.7280     7.6470 ca         1 NV5       0.641600
     18 C14         95.6740    47.5840     8.8970 ca         1 NV5      -0.101500
     19 C12         93.4980    48.5610     8.5270 ca         1 NV5       0.072600
     20 N1          91.3210    43.9210     9.0150 na         1 NV5      -0.165000
     21 C8          89.3450    43.7460     7.9260 cp         1 NV5       0.242500
     22 N2          88.3800    44.1740     7.1520 nb         1 NV5      -0.225000
     23 N3          88.4840    45.3880     6.6510 nb         1 NV5      -0.366000
     24 S1          89.5360    47.7010     6.1920 ss         1 NV5      -0.171400
     25 O1          89.9500    48.8350     8.8930 o          1 NV5      -0.565100
     26 N4          92.1840    48.7580     8.9870 ns         1 NV5      -0.486100
     27 C18        100.7140    49.2490     7.5430 ca         1 NV5      -0.065000
     28 N5          98.1340    49.7690     8.3960 nb         1 NV5      -0.737000
     29 N6          90.5800    45.7870     7.7240 nb         1 NV5      -0.730000
     30 C23         90.4650    44.5750     8.2110 ca         1 NV5       0.437500
     31 H1          90.9930    39.6730    10.7840 ha         1 NV5       0.134000
     32 H2          88.8410    39.3760     9.6310 ha         1 NV5       0.139000
     33 H3          87.8970    41.1940     8.2390 ha         1 NV5       0.153000
     34 H4          91.9050    47.7380     6.5600 h1         1 NV5       0.098700
     35 H5          91.2010    49.3220     6.2810 h1         1 NV5       0.098700
     36 H6          94.0070    47.3220    10.2080 ha         1 NV5       0.138500
     37 H8          98.8850    51.4250     9.3530 h4         1 NV5       0.022100
     38 H9          95.6470    49.4160     6.0500 ha         1 NV5       0.147500
     39 H10         93.3490    49.8250     6.7900 ha         1 NV5       0.138500
     40 H14         92.2740    41.7720    10.5840 ha         1 NV5       0.140000
     41 H15        101.2310    51.0440     8.6380 ha         1 NV5       0.147000
     42 H16         96.3350    46.9710     9.4960 ha         1 NV5       0.147500
     43 H17         92.0780    48.8590     9.9870 hn         1 NV5       0.324500
     44 H18        101.7220    49.0420     7.2070 ha         1 NV5       0.141000
     45 C1          92.5740    44.4290     9.5180 c3         1 NV5       0.037600
     46 O2          97.4030    47.8950     7.2840 os         1 NV5      -0.373400
     47 H7          99.8470    47.5330     6.5680 ha         1 NV5       0.158000
     48 H11         93.3750    43.7190     9.3190 h1         1 NV5       0.057033
     49 H12         92.8010    45.3620     9.0100 h1         1 NV5       0.057033
     50 H13         92.5170    44.6120    10.5910 h1         1 NV5       0.057033
@<TRIPOS>BOND
     1     1     2 ar  
     2     1    12 ar  
     3     1    31 1   
     4     2     3 ar  
     5     2    32 1   
     6     3     4 ar  
     7     3    33 1   
     8     4    15 ar  
     9     4    21 1   
    10     5    16 1   
    11     5    24 1   
    12     5    34 1   
    13     5    35 1   
    14     6    18 ar  
    15     6    19 ar  
    16     6    36 1   
    17     7    10 ar  
    18     7    18 ar  
    19     7    46 1   
    20     8    17 ar  
    21     8    27 ar  
    22     8    47 1   
    23     9    14 ar  
    24     9    28 ar  
    25     9    37 1   
    26    10    11 ar  
    27    10    38 1   
    28    11    19 ar  
    29    11    39 1   
    30    12    15 ar  
    31    12    40 1   
    32    13    23 ar  
    33    13    24 1   
    34    13    29 ar  
    35    14    27 ar  
    36    14    41 1   
    37    15    20 1   
    38    16    25 2   
    39    16    26 1   
    40    17    28 ar  
    41    17    46 1   
    42    18    42 1   
    43    19    26 1   
    44    20    30 1   
    45    20    45 1   
    46    21    22 ar  
    47    21    30 ar  
    48    22    23 ar  
    49    26    43 1   
    50    27    44 1   
    51    29    30 ar  
    52    45    48 1   
    53    45    49 1   
    54    45    50 1   
@<TRIPOS>SUBSTRUCTURE
     1 NV5         1 TEMP              0 ****  ****    0 ROOT
