@<TRIPOS>MOLECULE
NV6
   27    27     1     0     0
SMALL
bcc


@<TRIPOS>ATOM
      1 O2         -55.3470    10.5150   -27.9570 oh         1 NV6      -0.512100
      2 C1         -53.3370     4.0510   -32.9690 c          1 NV6       0.758100
      3 O3         -57.2330     4.9840   -32.6910 o          1 NV6      -0.827300
      4 O1         -52.4480     4.3860   -32.1890 o          1 NV6      -0.684100
      5 C2         -55.0590     5.3860   -31.8270 c3         1 NV6      -0.022300
      6 N1         -53.1010     3.1820   -34.0020 nt         1 NV6      -0.673000
      7 C4         -54.8650     7.8200   -31.0940 ca         1 NV6      -0.063300
      8 C5         -53.9280     7.8820   -30.0670 ca         1 NV6      -0.077500
      9 C6         -54.0650     8.7680   -29.0090 ca         1 NV6      -0.196500
     10 C7         -55.1590     9.6290   -28.9590 ca         1 NV6       0.109100
     11 C10        -56.5910     5.2500   -31.6530 c          1 NV6       0.926600
     12 C9         -55.9510     8.6890   -31.0270 ca         1 NV6      -0.077500
     13 C8         -56.1040     9.5850   -29.9800 ca         1 NV6      -0.196500
     14 N2         -54.6190     4.4570   -32.8410 ns         1 NV6      -0.555900
     15 H1         -54.6230    10.4600   -27.3230 ho         1 NV6       0.410000
     16 H2         -54.5650     5.1430   -30.8840 h1         1 NV6       0.065700
     17 H3         -53.6520     6.8430   -32.5400 hc         1 NV6       0.036200
     18 H4         -55.2950     7.1320   -33.0780 hc         1 NV6       0.036200
     19 H5         -52.1360     3.0680   -34.2640 hn         1 NV6       0.281500
     20 H6         -53.7430     3.1440   -34.7760 hn         1 NV6       0.281500
     21 H8         -53.0660     7.2240   -30.0900 ha         1 NV6       0.135500
     22 H9         -53.3160     8.7930   -28.2250 ha         1 NV6       0.120500
     23 H10        -56.6970     8.6680   -31.8130 ha         1 NV6       0.135500
     24 H11        -56.9570    10.2520   -29.9530 ha         1 NV6       0.120500
     25 H12        -55.3200     4.2050   -33.5220 hn         1 NV6       0.332500
     26 O4         -57.0450     5.4490   -30.5140 o          1 NV6      -0.827300
     27 C3         -54.6940     6.8360   -32.2140 c3         1 NV6      -0.035100
@<TRIPOS>BOND
     1     1    10 1   
     2     1    15 1   
     3     2     4 2   
     4     2     6 1   
     5     2    14 1   
     6     3    11 1   
     7     5    11 1   
     8     5    14 1   
     9     5    16 1   
    10     5    27 1   
    11     6    19 1   
    12     6    20 1   
    13     7     8 ar  
    14     7    12 ar  
    15     7    27 1   
    16     8     9 ar  
    17     8    21 1   
    18     9    10 ar  
    19     9    22 1   
    20    10    13 ar  
    21    11    26 1   
    22    12    13 ar  
    23    12    23 1   
    24    13    24 1   
    25    14    25 1   
    26    17    27 1   
    27    18    27 1   
@<TRIPOS>SUBSTRUCTURE
     1 NV6         1 TEMP              0 ****  ****    0 ROOT
