@<TRIPOS>MOLECULE
NV6
   27    27     1     0     0
SMALL
No Charge or Current Charge


@<TRIPOS>ATOM
      1 O2         -55.4550    10.5470   -27.9280 oh         1 NV6      -0.551100
      2 C1         -53.2920     4.0180   -33.0900 c          1 NV6       0.624100
      3 O3         -57.2920     5.3450   -32.4810 o          1 NV6      -0.722000
      4 O1         -52.3390     4.3170   -32.3980 o          1 NV6      -0.684100
      5 C2         -54.9800     5.4350   -31.8470 c3         1 NV6      -0.022300
      6 N1         -53.1770     3.1790   -34.1290 nt         1 NV6      -0.606000
      7 C4         -54.8360     7.8680   -31.0760 ca         1 NV6      -0.063300
      8 C5         -53.9360     7.9100   -29.9930 ca         1 NV6      -0.059500
      9 C6         -54.1430     8.8100   -28.9330 ca         1 NV6      -0.178500
     10 C7         -55.2500     9.6730   -28.9520 ca         1 NV6       0.109100
     11 C10        -56.5040     5.2830   -31.5450 c          1 NV6       0.716000
     12 C9         -55.9450     8.7370   -31.0880 ca         1 NV6      -0.059500
     13 C8         -56.1500     9.6370   -30.0270 ca         1 NV6      -0.178500
     14 N2         -54.5640     4.4770   -32.9010 ns         1 NV6      -0.488900
     15 H1         -54.7340    10.4300   -27.2730 ho         1 NV6       0.449000
     16 H2         -54.4440     5.1700   -30.9260 h1         1 NV6       0.065700
     17 H3         -53.5520     6.9270   -32.5170 hc         1 NV6       0.036200
     18 H4         -55.1780     7.1940   -33.1100 hc         1 NV6       0.036200
     19 H5         -52.2720     2.7870   -34.3440 hn         1 NV6       0.281500
     20 H6         -53.9810     2.9440   -34.6900 hn         1 NV6       0.281500
     21 H8         -53.0760     7.2430   -29.9740 ha         1 NV6       0.117500
     22 H9         -53.4400     8.8320   -28.1030 ha         1 NV6       0.102500
     23 H10        -56.6490     8.7140   -31.9180 ha         1 NV6       0.117500
     24 H11        -57.0080    10.3040   -30.0410 ha         1 NV6       0.102500
     25 H12        -55.2720     4.1470   -33.5460 hn         1 NV6       0.332500
     26 O4         -56.8410     4.9830   -30.4080 o          1 NV6      -0.722000
     27 C3         -54.6080     6.8910   -32.2230 c3         1 NV6      -0.035100
@<TRIPOS>BOND
     1     1    10 1   
     2     1    15 1   
     3     2     4 2   
     4     2     6 1   
     5     2    14 1   
     6     3    11 1   
     7     5    11 1   
     8     5    14 1   
     9     5    16 1   
    10     5    27 1   
    11     6    19 1   
    12     6    20 1   
    13     7     8 ar  
    14     7    12 ar  
    15     7    27 1   
    16     8     9 ar  
    17     8    21 1   
    18     9    10 ar  
    19     9    22 1   
    20    10    13 ar  
    21    11    26 1   
    22    12    13 ar  
    23    12    23 1   
    24    13    24 1   
    25    14    25 1   
    26    17    27 1   
    27    18    27 1   
@<TRIPOS>SUBSTRUCTURE
     1 NV6         1 TEMP              0 ****  ****    0 ROOT
