@<TRIPOS>MOLECULE
NV7
   32    33     1     0     0
SMALL
bcc


@<TRIPOS>ATOM
      1 N1           1.8480     0.1220     0.1760 n3         1 NV7      -0.724500
      2 C4          -2.2000     1.0690     0.7610 c3         1 NV7       0.145500
      3 C5          -3.2900     0.1710     0.2980 cc         1 NV7       0.230000
      4 C6          -4.1340    -0.6620     0.9530 cd         1 NV7      -0.263300
      5 C7          -4.9840    -1.2410    -0.0400 cd         1 NV7      -0.272300
      6 C8          -4.5850    -0.7130    -1.2190 cc         1 NV7       0.232600
      7 C10          1.3630     1.4070    -0.3250 c6         1 NV7       0.193300
      8 C1           3.6070    -0.5370    -1.8430 c3         1 NV7      -0.271300
      9 C2           0.8670    -0.9510     0.0150 c6         1 NV7       0.193300
     10 C3          -0.4170    -0.5510     0.7160 c6         1 NV7       0.165300
     11 C9           0.0720     1.7540     0.3910 c6         1 NV7       0.165300
     12 N2          -0.9110     0.7080     0.1980 n3         1 NV7      -0.718600
     13 O1           4.2160     0.9310     0.2420 o          1 NV7      -0.602800
     14 O2           3.7070    -1.4970     0.6020 o          1 NV7      -0.602800
     15 O3          -3.5610     0.1440    -1.0260 os         1 NV7      -0.312800
     16 S1           3.4340    -0.2490    -0.0950 s6         1 NV7       1.228900
     17 H1          -2.4210     2.0980     0.4620 h1         1 NV7       0.052200
     18 H2          -2.2010     1.0570     1.8620 h1         1 NV7       0.052200
     19 H3          -4.1460    -0.8470     2.0160 ha         1 NV7       0.158000
     20 H4          -5.7800    -1.9520     0.1080 ha         1 NV7       0.160000
     21 H5          -4.9200    -0.8470    -2.2350 h4         1 NV7       0.052100
     22 H6           2.0990     2.1840    -0.1300 h1         1 NV7       0.061200
     23 H7           1.1810     1.3680    -1.4060 h1         1 NV7       0.061200
     24 H8           4.6510    -0.7770    -2.0410 h1         1 NV7       0.100700
     25 H9           2.9760    -1.3710    -2.1450 h1         1 NV7       0.100700
     26 H10          3.3270     0.3600    -2.3890 h1         1 NV7       0.100700
     27 H11          0.6590    -1.1420    -1.0450 h1         1 NV7       0.061200
     28 H12          1.2440    -1.8690     0.4620 h1         1 NV7       0.061200
     29 H13         -1.1560    -1.3360     0.5440 h1         1 NV7       0.047950
     30 H14         -0.2370    -0.5050     1.8030 h1         1 NV7       0.047950
     31 H15          0.2890     1.9320     1.4570 h1         1 NV7       0.047950
     32 H16         -0.3100     2.6880    -0.0250 h1         1 NV7       0.047950
@<TRIPOS>BOND
     1     1     7 1   
     2     1     9 1   
     3     1    16 1   
     4     2     3 1   
     5     2    12 1   
     6     2    17 1   
     7     2    18 1   
     8     3     4 2   
     9     3    15 1   
    10     4     5 1   
    11     4    19 1   
    12     5     6 2   
    13     5    20 1   
    14     6    15 1   
    15     6    21 1   
    16     7    11 1   
    17     7    22 1   
    18     7    23 1   
    19     8    16 1   
    20     8    24 1   
    21     8    25 1   
    22     8    26 1   
    23     9    10 1   
    24     9    27 1   
    25     9    28 1   
    26    10    12 1   
    27    10    29 1   
    28    10    30 1   
    29    11    12 1   
    30    11    31 1   
    31    11    32 1   
    32    13    16 2   
    33    14    16 2   
@<TRIPOS>SUBSTRUCTURE
     1 NV7         1 TEMP              0 ****  ****    0 ROOT
