@<TRIPOS>MOLECULE
NV7
   32    33     1     0     0
SMALL
No Charge or Current Charge


@<TRIPOS>ATOM
      1 N1           1.9650     0.1040     0.3460 n3         1 NV7      -0.724500
      2 C4          -2.2810     1.1660     0.5780 c3         1 NV7       0.145500
      3 C5          -3.3870     0.2110     0.1880 cc         1 NV7       0.120300
      4 C6          -3.9870    -0.8000     0.8890 cd         1 NV7      -0.180000
      5 C7          -4.9630    -1.3660     0.0430 cd         1 NV7      -0.189000
      6 C8          -4.9210    -0.6780    -1.1390 cc         1 NV7       0.122900
      7 C10          1.5080     1.4240    -0.1810 c6         1 NV7       0.193300
      8 C1           3.5840    -0.5260    -1.8340 c3         1 NV7      -0.382100
      9 C2           0.9390    -0.9470     0.0820 c6         1 NV7       0.193300
     10 C3          -0.4670    -0.5480     0.6280 c6         1 NV7       0.165300
     11 C9           0.1030     1.8200     0.3670 c6         1 NV7       0.165300
     12 N2          -0.9300     0.7730     0.0950 n3         1 NV7      -0.718600
     13 O1           4.4230     0.8170     0.3010 o          1 NV7      -0.532000
     14 O2           3.8350    -1.6280     0.5710 o          1 NV7      -0.532000
     15 O3          -3.9550     0.3020    -1.0660 os         1 NV7      -0.224000
     16 S1           3.5810    -0.3290    -0.0580 s6         1 NV7       1.198100
     17 H1          -2.5430     2.1550     0.1780 h1         1 NV7       0.052200
     18 H2          -2.2770     1.2580     1.6720 h1         1 NV7       0.052200
     19 H3          -3.7500    -1.1030     1.9040 ha         1 NV7       0.140000
     20 H4          -5.6270    -2.1930     0.2760 ha         1 NV7       0.142000
     21 H5          -5.4840    -0.7710    -2.0580 h4         1 NV7       0.052100
     22 H6           2.2160     2.2190     0.0940 h1         1 NV7       0.061200
     23 H7           1.4560     1.4040    -1.2790 h1         1 NV7       0.061200
     24 H8           4.6020    -0.8030    -2.1270 h1         1 NV7       0.100700
     25 H9           2.8750    -1.3190    -2.0880 h1         1 NV7       0.100700
     26 H10          3.2950     0.4300    -2.2820 h1         1 NV7       0.100700
     27 H11          0.8480    -1.1350    -0.9970 h1         1 NV7       0.061200
     28 H12          1.2270    -1.8990     0.5520 h1         1 NV7       0.061200
     29 H13         -1.1770    -1.3430     0.3600 h1         1 NV7       0.047950
     30 H14         -0.4180    -0.5170     1.7260 h1         1 NV7       0.047950
     31 H15          0.1890     1.9940     1.4500 h1         1 NV7       0.047950
     32 H16         -0.1940     2.7750    -0.0890 h1         1 NV7       0.047950
@<TRIPOS>BOND
     1     1     7 1   
     2     1     9 1   
     3     1    16 1   
     4     2     3 1   
     5     2    12 1   
     6     2    17 1   
     7     2    18 1   
     8     3     4 2   
     9     3    15 1   
    10     4     5 1   
    11     4    19 1   
    12     5     6 2   
    13     5    20 1   
    14     6    15 1   
    15     6    21 1   
    16     7    11 1   
    17     7    22 1   
    18     7    23 1   
    19     8    16 1   
    20     8    24 1   
    21     8    25 1   
    22     8    26 1   
    23     9    10 1   
    24     9    27 1   
    25     9    28 1   
    26    10    12 1   
    27    10    29 1   
    28    10    30 1   
    29    11    12 1   
    30    11    31 1   
    31    11    32 1   
    32    13    16 2   
    33    14    16 2   
@<TRIPOS>SUBSTRUCTURE
     1 NV7         1 TEMP              0 ****  ****    0 ROOT
