@<TRIPOS>MOLECULE
NV9
   38    40     1     0     0
SMALL
abcg2


@<TRIPOS>ATOM
      1 N1           6.1630     0.3370    16.9990 nb         1 NV9      -0.650000
      2 C4          10.5180    -0.4910    22.4870 ca         1 NV9      -0.063300
      3 C5           9.1530    -0.9460    22.0540 c3         1 NV9      -0.108100
      4 C6           8.5020    -0.0040    21.0480 c          1 NV9       0.602100
      5 C7           6.7720     0.0810    19.3110 ca         1 NV9      -0.082000
      6 C8           6.8760    -0.2450    17.9620 ca         1 NV9       0.319900
      7 C10          5.1460     1.6990    18.6860 ca         1 NV9      -0.147000
      8 C13          5.4350     0.4880    22.1050 ca         1 NV9      -0.087500
      9 C15          5.1940     2.2080    23.7780 ca         1 NV9      -0.101000
     10 C17          5.6060     2.8060    21.4800 ca         1 NV9      -0.087500
     11 O            8.7390     1.1950    21.0050 o          1 NV9      -0.560100
     12 C3          10.6870     0.2930    23.6270 ca         1 NV9      -0.085000
     13 C2          11.9530     0.7280    24.0050 ca         1 NV9      -0.100000
     14 C1          13.0710     0.3880    23.2520 ca         1 NV9      -0.096000
     15 C18         11.6360    -0.8360    21.7280 ca         1 NV9      -0.093000
     16 C           12.8910    -0.3940    22.1190 ca         1 NV9       0.126000
     17 CL          14.2890    -0.8370    21.1560 cl         1 NV9      -0.214000
     18 N            7.5940    -0.6080    20.2370 ns         1 NV9      -0.175000
     19 C11          5.8650     1.0750    19.7070 cp         1 NV9       0.016000
     20 C9           5.3190     1.3050    17.3680 ca         1 NV9       0.327900
     21 C12          5.6410     1.4560    21.1180 cp         1 NV9      -0.039000
     22 C16          5.3900     3.1790    22.8010 ca         1 NV9      -0.113500
     23 C14          5.2110     0.8620    23.4240 ca         1 NV9      -0.113500
     24 H1           8.4760    -0.9800    22.9120 hc         1 NV9       0.066200
     25 H2           9.1940    -1.9540    21.6390 hc         1 NV9       0.066200
     26 H3           7.5790    -1.0160    17.6630 h4         1 NV9       0.021100
     27 H4           4.4280     2.4720    18.9260 ha         1 NV9       0.128000
     28 H5           5.4410    -0.5600    21.8380 ha         1 NV9       0.114500
     29 H6           5.0270     2.4970    24.8080 ha         1 NV9       0.113000
     30 H7           5.7710     3.5650    20.7260 ha         1 NV9       0.114500
     31 H8           9.8230     0.5610    24.2220 ha         1 NV9       0.119000
     32 H9          12.0740     1.3350    24.8930 ha         1 NV9       0.120000
     33 H10         14.0590     0.7180    23.5390 ha         1 NV9       0.130000
     34 H11         11.5270    -1.4460    20.8410 ha         1 NV9       0.126000
     35 H12          7.5420    -1.6150    20.2490 hn         1 NV9       0.154000
     36 H13          4.7490     1.7810    16.5780 h4         1 NV9       0.023100
     37 H14          5.3780     4.2280    23.0670 ha         1 NV9       0.113500
     38 H15          5.0480     0.1000    24.1760 ha         1 NV9       0.113500
@<TRIPOS>BOND
     1     1     6 ar  
     2     1    20 ar  
     3     2     3 1   
     4     2    12 ar  
     5     2    15 ar  
     6     3     4 1   
     7     3    24 1   
     8     3    25 1   
     9     4    11 2   
    10     4    18 1   
    11     5     6 ar  
    12     5    18 1   
    13     5    19 ar  
    14     6    26 1   
    15     7    19 ar  
    16     7    20 ar  
    17     7    27 1   
    18     8    21 ar  
    19     8    23 ar  
    20     8    28 1   
    21     9    22 ar  
    22     9    23 ar  
    23     9    29 1   
    24    10    21 ar  
    25    10    22 ar  
    26    10    30 1   
    27    12    13 ar  
    28    12    31 1   
    29    13    14 ar  
    30    13    32 1   
    31    14    16 ar  
    32    14    33 1   
    33    15    16 ar  
    34    15    34 1   
    35    16    17 1   
    36    18    35 1   
    37    19    21 1   
    38    20    36 1   
    39    22    37 1   
    40    23    38 1   
@<TRIPOS>SUBSTRUCTURE
     1 NV9         1 TEMP              0 ****  ****    0 ROOT
