@<TRIPOS>MOLECULE
NV9
   38    40     1     0     0
SMALL
No Charge or Current Charge


@<TRIPOS>ATOM
      1 N1           7.1060     0.6860    17.1600 nb         1 NV9      -0.650000
      2 C4          10.6220    -0.3120    22.6810 ca         1 NV9      -0.063300
      3 C5           9.1050    -0.3230    22.8360 c3         1 NV9      -0.108100
      4 C6           8.4470     0.5770    21.7840 c          1 NV9       0.602100
      5 C7           7.2150     0.4280    19.5750 ca         1 NV9      -0.082000
      6 C8           7.7050     0.2030    18.2730 ca         1 NV9       0.319900
      7 C10          5.4090     1.6710    18.5790 ca         1 NV9      -0.147000
      8 C13          5.1350     0.3300    21.9880 ca         1 NV9      -0.087500
      9 C15          4.1370     1.8550    23.6010 ca         1 NV9      -0.101000
     10 C17          4.9580     2.6980    21.4700 ca         1 NV9      -0.087500
     11 O            8.4180     1.7980    21.8950 o          1 NV9      -0.560100
     12 C3          11.3980     0.6560    23.3500 ca         1 NV9      -0.085000
     13 C2          12.7960     0.6710    23.2030 ca         1 NV9      -0.100000
     14 C1          13.4270    -0.2810    22.3830 ca         1 NV9      -0.096000
     15 C18         11.2600    -1.2630    21.8600 ca         1 NV9      -0.093000
     16 C           12.6580    -1.2460    21.7130 ca         1 NV9       0.126000
     17 Cl          13.4450    -2.4360    20.6860 cl         1 NV9      -0.214000
     18 N            7.9220    -0.0940    20.6900 ns         1 NV9      -0.175000
     19 C11          6.0120     1.1660    19.7540 cp         1 NV9       0.016000
     20 C9           5.9790     1.4140    17.3220 ca         1 NV9       0.327900
     21 C12          5.3710     1.3980    21.0860 cp         1 NV9      -0.039000
     22 C16          4.3500     2.9250    22.7160 ca         1 NV9      -0.113500
     23 C14          4.5280     0.5570    23.2350 ca         1 NV9      -0.113500
     24 H1           8.8340     0.0470    23.8320 hc         1 NV9       0.066200
     25 H2           8.7400    -1.3510    22.7220 hc         1 NV9       0.066200
     26 H3           8.6180    -0.3710    18.1160 h4         1 NV9       0.021100
     27 H4           4.4890     2.2450    18.6370 ha         1 NV9       0.128000
     28 H5           5.4170    -0.6830    21.7120 ha         1 NV9       0.114500
     29 H6           3.6660     2.0310    24.5660 ha         1 NV9       0.113000
     30 H7           5.1220     3.5360    20.7970 ha         1 NV9       0.114500
     31 H8          10.9170     1.3990    23.9840 ha         1 NV9       0.119000
     32 H9          13.3890     1.4210    23.7220 ha         1 NV9       0.120000
     33 H10         14.5080    -0.2710    22.2670 ha         1 NV9       0.130000
     34 H11         10.6780    -2.0150    21.3350 ha         1 NV9       0.126000
     35 H12          8.0720    -1.0950    20.6790 hn         1 NV9       0.154000
     36 H13          5.5120     1.7950    16.4140 h4         1 NV9       0.023100
     37 H14          4.0450     3.9310    22.9970 ha         1 NV9       0.113500
     38 H15          4.3560    -0.2750    23.9150 ha         1 NV9       0.113500
@<TRIPOS>BOND
     1     1     6 ar  
     2     1    20 ar  
     3     2     3 1   
     4     2    12 ar  
     5     2    15 ar  
     6     3     4 1   
     7     3    24 1   
     8     3    25 1   
     9     4    11 2   
    10     4    18 1   
    11     5     6 ar  
    12     5    18 1   
    13     5    19 ar  
    14     6    26 1   
    15     7    19 ar  
    16     7    20 ar  
    17     7    27 1   
    18     8    21 ar  
    19     8    23 ar  
    20     8    28 1   
    21     9    22 ar  
    22     9    23 ar  
    23     9    29 1   
    24    10    21 ar  
    25    10    22 ar  
    26    10    30 1   
    27    12    13 ar  
    28    12    31 1   
    29    13    14 ar  
    30    13    32 1   
    31    14    16 ar  
    32    14    33 1   
    33    15    16 ar  
    34    15    34 1   
    35    16    17 1   
    36    18    35 1   
    37    19    21 1   
    38    20    36 1   
    39    22    37 1   
    40    23    38 1   
@<TRIPOS>SUBSTRUCTURE
     1 NV9         1 TEMP              0 ****  ****    0 ROOT
