@<TRIPOS>MOLECULE
NVA
   18    17     1     0     0
SMALL
bcc


@<TRIPOS>ATOM
      1 N            5.1010    19.7040    15.3620 n3         1 NVA      -0.878800
      2 CA           3.9250    20.1970    16.0660 c3         1 NVA       0.024500
      3 CB           4.1960    21.5980    16.6170 c3         1 NVA      -0.053400
      4 CG           5.3760    21.6810    17.5790 c3         1 NVA      -0.079400
      5 CD           5.5350    23.0690    18.1840 c3         1 NVA      -0.084100
      6 C            2.6710    20.2150    15.1590 c          1 NVA       0.928600
      7 O            2.7980    19.8640    13.9700 o          1 NVA      -0.836300
      8 OXT          1.6150    20.5730    15.7220 o          1 NVA      -0.836300
      9 H            4.8510    18.8830    14.8270 hn         1 NVA       0.315300
     10 H2           5.7950    19.4030    16.0330 hn         1 NVA       0.315300
     11 HA           3.6640    19.5610    16.9300 h1         1 NVA      -0.006300
     12 HB2          4.3640    22.2870    15.7810 hc         1 NVA       0.044700
     13 HB3          3.2980    21.9440    17.1350 hc         1 NVA       0.044700
     14 HG2          5.2420    20.9450    18.3790 hc         1 NVA       0.024200
     15 HG3          6.3020    21.4100    17.0640 hc         1 NVA       0.024200
     16 HD1          6.3720    23.1120    18.8830 hc         1 NVA       0.016700
     17 HD2          5.7160    23.8180    17.4100 hc         1 NVA       0.016700
     18 HD3          4.6370    23.3690    18.7270 hc         1 NVA       0.016700
@<TRIPOS>BOND
     1     1     2 1   
     2     1     9 1   
     3     1    10 1   
     4     2     3 1   
     5     2     6 1   
     6     2    11 1   
     7     3     4 1   
     8     3    12 1   
     9     3    13 1   
    10     4     5 1   
    11     4    14 1   
    12     4    15 1   
    13     5    16 1   
    14     5    17 1   
    15     5    18 1   
    16     6     7 1   
    17     6     8 1   
@<TRIPOS>SUBSTRUCTURE
     1 NVA         1 TEMP              0 ****  ****    0 ROOT
