@<TRIPOS>MOLECULE
NVA
   18    17     1     0     0
SMALL
No Charge or Current Charge


@<TRIPOS>ATOM
      1 N            5.1050    19.5440    15.3910 n8         1 NVA      -0.878800
      2 CA           3.9050    20.2110    16.0110 c3         1 NVA       0.024500
      3 CB           4.2510    21.6430    16.5080 c3         1 NVA      -0.053400
      4 CG           5.3290    21.6880    17.6200 c3         1 NVA      -0.079400
      5 CD           5.6100    23.1150    18.1300 c3         1 NVA      -0.084100
      6 C            2.5400    20.2130    15.1800 c          1 NVA       0.928600
      7 O            2.3160    21.1190    14.3800 o          1 NVA      -0.836300
      8 OXT          1.7520    19.2860    15.3500 o          1 NVA      -0.836300
      9 H            4.8820    18.5600    15.2140 hn         1 NVA       0.315300
     10 H2           5.8600    19.5180    16.0820 hn         1 NVA       0.315300
     11 HA           3.6760    19.6360    16.9190 h1         1 NVA      -0.006300
     12 HB2          4.5770    22.2560    15.6590 hc         1 NVA       0.044700
     13 HB3          3.3370    22.1070    16.8980 hc         1 NVA       0.044700
     14 HG2          5.0070    21.0660    18.4640 hc         1 NVA       0.024200
     15 HG3          6.2670    21.2590    17.2450 hc         1 NVA       0.024200
     16 HD1          6.3770    23.0960    18.9130 hc         1 NVA       0.016700
     17 HD2          5.9670    23.7550    17.3140 hc         1 NVA       0.016700
     18 HD3          4.7010    23.5620    18.5510 hc         1 NVA       0.016700
@<TRIPOS>BOND
     1     1     2 1   
     2     1     9 1   
     3     1    10 1   
     4     2     3 1   
     5     2     6 1   
     6     2    11 1   
     7     3     4 1   
     8     3    12 1   
     9     3    13 1   
    10     4     5 1   
    11     4    14 1   
    12     4    15 1   
    13     5    16 1   
    14     5    17 1   
    15     5    18 1   
    16     6     7 1   
    17     6     8 1   
@<TRIPOS>SUBSTRUCTURE
     1 NVA         1 TEMP              0 ****  ****    0 ROOT
