@<TRIPOS>MOLECULE
NVB
   56    59     1     0     0
SMALL
No Charge or Current Charge


@<TRIPOS>ATOM
      1 S1          -4.6130     1.9910    -0.3270 sy         1 NVB       1.147600
      2 O2          -5.0930     2.1520    -1.7020 o          1 NVB      -0.535500
      3 O3          -3.9710     3.0680     0.4300 o          1 NVB      -0.535500
      4 N4          -5.9340     1.5010     0.5650 n7         1 NVB      -0.860300
      5 C6          -6.7540     2.5430     1.2110 c3         1 NVB       0.180100
      6 C10         -3.6180     0.4970    -0.2100 ca         1 NVB      -0.312500
      7 C11         -3.8450    -0.5730    -1.0990 ca         1 NVB      -0.024000
      8 C13         -3.0650    -1.7390    -1.0100 ca         1 NVB      -0.107500
      9 C15         -2.0410    -1.8650    -0.0400 cp         1 NVB       0.030000
     10 C16         -1.8420    -0.7860     0.8550 ca         1 NVB      -0.107500
     11 C18         -2.6150     0.3840     0.7730 ca         1 NVB      -0.024000
     12 C20         -1.2190    -3.1160     0.0420 cp         1 NVB      -0.023000
     13 C21          0.2090    -3.0860     0.0730 ca         1 NVB       0.250000
     14 N22          0.8690    -1.8960     0.0010 nb         1 NVB      -0.651000
     15 C23          2.2270    -1.8950     0.0360 cp         1 NVB       0.386500
     16 C24          2.9330    -3.1350     0.1420 ca         1 NVB       0.315900
     17 N26          2.3050    -4.3410     0.2020 nb         1 NVB      -0.627000
     18 C27          0.9450    -4.3180     0.1640 ca         1 NVB       0.219000
     19 C28          0.2450    -5.5360     0.2110 ca         1 NVB      -0.062000
     20 C30         -1.1560    -5.5660     0.1660 ca         1 NVB      -0.106000
     21 C32         -1.8770    -4.3690     0.0810 ca         1 NVB      -0.083000
     22 C34          2.9110    -0.5410    -0.0250 cp         1 NVB      -0.090500
     23 C35          4.2970    -0.4150    -0.2900 ca         1 NVB      -0.198500
     24 C37          4.9290     0.8470    -0.3460 ca         1 NVB       0.151100
     25 C38          4.1870     2.0340    -0.1410 ca         1 NVB       0.043100
     26 C39          2.7870     1.9380     0.1210 ca         1 NVB       0.151100
     27 C40          2.1810     0.6620     0.1750 ca         1 NVB      -0.198500
     28 O42          2.0240     3.0780     0.3210 os         1 NVB      -0.324100
     29 C43          0.6050     3.0500     0.5670 c3         1 NVB       0.145400
     30 O47          4.9020     3.2320    -0.2180 os         1 NVB      -0.328100
     31 C48          4.3400     4.5440    -0.0370 c3         1 NVB       0.148900
     32 O52          6.2870     0.9650    -0.6060 os         1 NVB      -0.324100
     33 C53          7.1430    -0.1700    -0.8280 c3         1 NVB       0.145400
     34 HN4         -5.4990     0.9070     1.2700 hn         1 NVB       0.480000
     35 H6          -7.5860     2.0900     1.7670 h1         1 NVB       0.052033
     36 H6A         -6.1640     3.1400     1.9190 h1         1 NVB       0.052033
     37 H6B         -7.1830     3.2240     0.4630 h1         1 NVB       0.052033
     38 H11         -4.6210    -0.5070    -1.8600 ha         1 NVB       0.134500
     39 H13         -3.2470    -2.5520    -1.7090 ha         1 NVB       0.125000
     40 H16         -1.0770    -0.8600     1.6240 ha         1 NVB       0.125000
     41 H18         -2.4280     1.1950     1.4760 ha         1 NVB       0.134500
     42 H24          4.0190    -3.1670     0.1920 h4         1 NVB       0.032100
     43 H28          0.7980    -6.4690     0.2790 ha         1 NVB       0.137000
     44 H30         -1.6820    -6.5180     0.2010 ha         1 NVB       0.123000
     45 H32         -2.9640    -4.4060     0.0570 ha         1 NVB       0.122000
     46 H35          4.8810    -1.3110    -0.4660 ha         1 NVB       0.131500
     47 H40          1.1190     0.5840     0.3810 ha         1 NVB       0.131500
     48 H43          0.2210     4.0710     0.6840 h1         1 NVB       0.044700
     49 H43A         0.0720     2.5810    -0.2700 h1         1 NVB       0.044700
     50 H43B         0.3780     2.4950     1.4860 h1         1 NVB       0.044700
     51 H48          3.9060     4.6510     0.9650 h1         1 NVB       0.035367
     52 H48A         5.1220     5.3060    -0.1460 h1         1 NVB       0.035367
     53 H48B         3.5680     4.7480    -0.7900 h1         1 NVB       0.035367
     54 H53          7.1500    -0.8320     0.0470 h1         1 NVB       0.044700
     55 H53A         6.8130    -0.7440    -1.7040 h1         1 NVB       0.044700
     56 H53B         8.1730     0.1610    -1.0100 h1         1 NVB       0.044700
@<TRIPOS>BOND
     1     1     2 2   
     2     1     3 2   
     3     1     4 1   
     4     1     6 1   
     5     4     5 1   
     6     4    34 1   
     7     5    35 1   
     8     5    36 1   
     9     5    37 1   
    10     6     7 ar  
    11     6    11 ar  
    12     7     8 ar  
    13     7    38 1   
    14     8     9 ar  
    15     8    39 1   
    16     9    10 ar  
    17     9    12 1   
    18    10    11 ar  
    19    10    40 1   
    20    11    41 1   
    21    12    13 ar  
    22    12    21 ar  
    23    13    14 ar  
    24    13    18 ar  
    25    14    15 ar  
    26    15    16 ar  
    27    15    22 1   
    28    16    17 ar  
    29    16    42 1   
    30    17    18 ar  
    31    18    19 ar  
    32    19    20 ar  
    33    19    43 1   
    34    20    21 ar  
    35    20    44 1   
    36    21    45 1   
    37    22    23 ar  
    38    22    27 ar  
    39    23    24 ar  
    40    23    46 1   
    41    24    25 ar  
    42    24    32 1   
    43    25    26 ar  
    44    25    30 1   
    45    26    27 ar  
    46    26    28 1   
    47    27    47 1   
    48    28    29 1   
    49    29    48 1   
    50    29    49 1   
    51    29    50 1   
    52    30    31 1   
    53    31    51 1   
    54    31    52 1   
    55    31    53 1   
    56    32    33 1   
    57    33    54 1   
    58    33    55 1   
    59    33    56 1   
@<TRIPOS>SUBSTRUCTURE
     1 NVB         1 TEMP              0 ****  ****    0 ROOT
