@<TRIPOS>MOLECULE
NVB
   56    59     1     0     0
SMALL
abcg2


@<TRIPOS>ATOM
      1 S1          -4.2580     2.2070    -0.2480 sy         1 NVB       1.147600
      2 O2          -4.6000     2.4750    -1.6340 o          1 NVB      -0.535500
      3 O3          -3.4620     3.1630     0.5060 o          1 NVB      -0.535500
      4 N4          -5.6820     2.0320     0.5530 n7         1 NVB      -0.860300
      5 C6          -5.6560     1.7170     1.9750 c3         1 NVB       0.180100
      6 C10         -3.4190     0.6480    -0.1740 ca         1 NVB      -0.312500
      7 C11         -3.6560    -0.3090    -1.1510 ca         1 NVB      -0.024000
      8 C13         -2.9820    -1.5190    -1.0870 ca         1 NVB      -0.107500
      9 C15         -2.0720    -1.7770    -0.0630 cp         1 NVB       0.030000
     10 C16         -1.8750    -0.8110     0.9250 ca         1 NVB      -0.107500
     11 C18         -2.5440     0.3980     0.8750 ca         1 NVB      -0.024000
     12 C20         -1.3080    -3.0390    -0.0420 cp         1 NVB      -0.023000
     13 C21          0.1120    -2.9950     0.0280 ca         1 NVB       0.250000
     14 N22          0.7360    -1.8070     0.0370 nb         1 NVB      -0.651000
     15 C23          2.0390    -1.7620     0.1030 cp         1 NVB       0.386500
     16 C24          2.7820    -2.9780     0.1620 ca         1 NVB       0.315900
     17 N26          2.2110    -4.1460     0.1320 nb         1 NVB      -0.627000
     18 C27          0.8590    -4.1940     0.0560 ca         1 NVB       0.219000
     19 C28          0.1960    -5.4350    -0.0020 ca         1 NVB      -0.062000
     20 C30         -1.1710    -5.4620    -0.0910 ca         1 NVB      -0.106000
     21 C32         -1.9190    -4.2670    -0.1130 ca         1 NVB      -0.083000
     22 C34          2.6640    -0.4240     0.1100 cp         1 NVB      -0.090500
     23 C35          4.0470    -0.2610     0.0940 ca         1 NVB      -0.198500
     24 C37          4.5920     1.0200     0.0930 ca         1 NVB       0.151100
     25 C38          3.7560     2.1400     0.1190 ca         1 NVB       0.043100
     26 C39          2.3670     1.9680     0.1310 ca         1 NVB       0.151100
     27 C40          1.8270     0.6900     0.1300 ca         1 NVB      -0.198500
     28 O42          1.6410     3.0980     0.1500 os         1 NVB      -0.324100
     29 C43          0.2300     2.9940     0.1810 c3         1 NVB       0.145400
     30 O47          4.2890     3.3860     0.1510 os         1 NVB      -0.328100
     31 C48          4.4970     3.9690    -1.1300 c3         1 NVB       0.148900
     32 O52          5.9090     1.2840     0.0750 os         1 NVB      -0.324100
     33 C53          6.8180     0.2010     0.0720 c3         1 NVB       0.145400
     34 HN4         -6.3470     1.4800     0.0220 hn         1 NVB       0.480000
     35 H6          -6.6830     1.7260     2.3320 h1         1 NVB       0.052033
     36 H6A         -5.2230     0.7380     2.1960 h1         1 NVB       0.052033
     37 H6B         -5.1060     2.4810     2.5170 h1         1 NVB       0.052033
     38 H11         -4.3370    -0.1180    -1.9680 ha         1 NVB       0.134500
     39 H13         -3.1390    -2.2550    -1.8650 ha         1 NVB       0.125000
     40 H16         -1.1910    -1.0010     1.7400 ha         1 NVB       0.125000
     41 H18         -2.3720     1.1370     1.6450 ha         1 NVB       0.134500
     42 H24          3.8630    -2.9710     0.2330 h4         1 NVB       0.032100
     43 H28          0.7790    -6.3460     0.0240 ha         1 NVB       0.137000
     44 H30         -1.6920    -6.4080    -0.1390 ha         1 NVB       0.123000
     45 H32         -2.9990    -4.3270    -0.1650 ha         1 NVB       0.122000
     46 H35          4.7010    -1.1200     0.0720 ha         1 NVB       0.131500
     47 H40          0.7580     0.5350     0.1420 ha         1 NVB       0.131500
     48 H43         -0.1520     4.0110     0.1970 h1         1 NVB       0.044700
     49 H43A        -0.1640     2.4840    -0.7020 h1         1 NVB       0.044700
     50 H43B        -0.1200     2.4720     1.0760 h1         1 NVB       0.044700
     51 H48          3.5620     4.0630    -1.6870 h1         1 NVB       0.035367
     52 H48A         4.9070     4.9640    -0.9660 h1         1 NVB       0.035367
     53 H48B         5.2070     3.3910    -1.7260 h1         1 NVB       0.035367
     54 H53          6.7150    -0.4220     0.9640 h1         1 NVB       0.044700
     55 H53A         6.7040    -0.4280    -0.8150 h1         1 NVB       0.044700
     56 H53B         7.8140     0.6370     0.0640 h1         1 NVB       0.044700
@<TRIPOS>BOND
     1     1     2 2   
     2     1     3 2   
     3     1     4 1   
     4     1     6 1   
     5     4     5 1   
     6     4    34 1   
     7     5    35 1   
     8     5    36 1   
     9     5    37 1   
    10     6     7 ar  
    11     6    11 ar  
    12     7     8 ar  
    13     7    38 1   
    14     8     9 ar  
    15     8    39 1   
    16     9    10 ar  
    17     9    12 1   
    18    10    11 ar  
    19    10    40 1   
    20    11    41 1   
    21    12    13 ar  
    22    12    21 ar  
    23    13    14 ar  
    24    13    18 ar  
    25    14    15 ar  
    26    15    16 ar  
    27    15    22 1   
    28    16    17 ar  
    29    16    42 1   
    30    17    18 ar  
    31    18    19 ar  
    32    19    20 ar  
    33    19    43 1   
    34    20    21 ar  
    35    20    44 1   
    36    21    45 1   
    37    22    23 ar  
    38    22    27 ar  
    39    23    24 ar  
    40    23    46 1   
    41    24    25 ar  
    42    24    32 1   
    43    25    26 ar  
    44    25    30 1   
    45    26    27 ar  
    46    26    28 1   
    47    27    47 1   
    48    28    29 1   
    49    29    48 1   
    50    29    49 1   
    51    29    50 1   
    52    30    31 1   
    53    31    51 1   
    54    31    52 1   
    55    31    53 1   
    56    32    33 1   
    57    33    54 1   
    58    33    55 1   
    59    33    56 1   
@<TRIPOS>SUBSTRUCTURE
     1 NVB         1 TEMP              0 ****  ****    0 ROOT
