@<TRIPOS>MOLECULE
NVC
   51    53     1     0     0
SMALL
No Charge or Current Charge


@<TRIPOS>ATOM
      1 O28         20.3620    53.7600    15.7220 o          1 NVC      -0.608100
      2 C27         20.1260    54.9600    15.7910 c          1 NVC       0.609100
      3 C29         18.6650    55.4700    15.7660 c3         1 NVC      -0.155700
      4 C40         17.9210    55.0890    17.0790 c3         1 NVC      -0.068400
      5 C43         18.5820    55.6470    18.3610 c3         1 NVC      -0.085400
      6 C46         17.8230    55.2660    19.6500 c3         1 NVC      -0.072400
      7 C49         18.4970    55.8050    20.9260 c3         1 NVC      -0.088100
      8 C31         17.9580    54.9220    14.5020 c3         1 NVC       0.126000
      9 N34         16.6040    55.4760    14.2860 n          1 NVC      -0.313300
     10 O35         16.5370    56.7930    13.6940 oh         1 NVC      -0.429100
     11 C37         15.4230    54.7400    14.5590 c          1 NVC       0.607900
     12 O39         14.2980    55.1900    14.3600 o          1 NVC      -0.577100
     13 N17         21.1960    55.8730    15.9120 n          1 NVC      -0.407800
     14 C15         22.6110    55.4140    15.9720 c5         1 NVC       0.105400
     15 C24         23.3740    56.7530    15.7500 c5         1 NVC      -0.082400
     16 C21         22.4700    57.7780    16.4800 c5         1 NVC      -0.095400
     17 C18         21.0520    57.3430    16.0290 c5         1 NVC       0.111000
     18 C3          23.0190    54.7360    17.2780 cc         1 NVC       0.531600
     19 O1          24.0180    53.7690    17.1990 os         1 NVC      -0.289700
     20 C6          24.1230    53.3900    18.4950 ca         1 NVC       0.036100
     21 C5          23.2500    54.0890    19.2750 ca         1 NVC       0.057400
     22 N4          22.5230    54.9720    18.5110 nd         1 NVC      -0.568100
     23 C7          24.9890    52.4210    19.0170 ca         1 NVC      -0.090000
     24 C9          24.9380    52.1760    20.4060 ca         1 NVC      -0.093000
     25 C11         24.0340    52.8970    21.2230 ca         1 NVC      -0.126000
     26 C13         23.1770    53.8670    20.6570 ca         1 NVC      -0.048000
     27 H29         18.6530    56.5610    15.6990 hc         1 NVC       0.062700
     28 H40         16.8890    55.4610    17.0340 hc         1 NVC       0.051200
     29 H40A        17.8580    53.9950    17.1560 hc         1 NVC       0.051200
     30 H43         19.6110    55.2740    18.4390 hc         1 NVC       0.048200
     31 H43A        18.6410    56.7400    18.2910 hc         1 NVC       0.048200
     32 H46         16.7970    55.6520    19.5970 hc         1 NVC       0.037200
     33 H46A        17.7510    54.1730    19.7200 hc         1 NVC       0.037200
     34 H49         19.5150    55.4070    21.0240 hc         1 NVC       0.032700
     35 H49A        18.5530    56.9000    20.9020 hc         1 NVC       0.032700
     36 H49B        17.9260    55.5100    21.8140 hc         1 NVC       0.032700
     37 H31         18.5690    55.1600    13.6210 h1         1 NVC       0.071200
     38 H31A        17.8960    53.8260    14.5620 h1         1 NVC       0.071200
     39 HO35        16.4300    57.4130    14.4500 ho         1 NVC       0.440000
     40 H37         15.6240    53.7340    14.9730 h5         1 NVC       0.026200
     41 H15         22.8280    54.7180    15.1510 h1         1 NVC       0.098700
     42 H24         24.3980    56.7310    16.1410 hc         1 NVC       0.064700
     43 H24A        23.4420    56.9870    14.6810 hc         1 NVC       0.064700
     44 H21         22.5770    57.7010    17.5680 hc         1 NVC       0.065700
     45 H21A        22.6950    58.8150    16.2060 hc         1 NVC       0.065700
     46 H18         20.7870    57.7820    15.0580 h1         1 NVC       0.052200
     47 H18A        20.2960    57.6380    16.7670 h1         1 NVC       0.052200
     48 H7          25.6760    51.8770    18.3720 ha         1 NVC       0.135000
     49 H9          25.5950    51.4310    20.8490 ha         1 NVC       0.119000
     50 H11         23.9990    52.7040    22.2930 ha         1 NVC       0.118000
     51 H13         22.4780    54.4280    21.2740 ha         1 NVC       0.131000
@<TRIPOS>BOND
     1     1     2 2   
     2     2     3 1   
     3     2    13 1   
     4     3     4 1   
     5     3     8 1   
     6     3    27 1   
     7     4     5 1   
     8     4    28 1   
     9     4    29 1   
    10     5     6 1   
    11     5    30 1   
    12     5    31 1   
    13     6     7 1   
    14     6    32 1   
    15     6    33 1   
    16     7    34 1   
    17     7    35 1   
    18     7    36 1   
    19     8     9 1   
    20     8    37 1   
    21     8    38 1   
    22     9    10 1   
    23     9    11 1   
    24    10    39 1   
    25    11    12 2   
    26    11    40 1   
    27    13    14 1   
    28    13    17 1   
    29    14    15 1   
    30    14    18 1   
    31    14    41 1   
    32    15    16 1   
    33    15    42 1   
    34    15    43 1   
    35    16    17 1   
    36    16    44 1   
    37    16    45 1   
    38    17    46 1   
    39    17    47 1   
    40    18    19 1   
    41    18    22 2   
    42    19    20 1   
    43    20    21 ar  
    44    20    23 ar  
    45    21    22 1   
    46    21    26 ar  
    47    23    24 ar  
    48    23    48 1   
    49    24    25 ar  
    50    24    49 1   
    51    25    26 ar  
    52    25    50 1   
    53    26    51 1   
@<TRIPOS>SUBSTRUCTURE
     1 NVC         1 TEMP              0 ****  ****    0 ROOT
