@<TRIPOS>MOLECULE
NVC
   51    53     1     0     0
SMALL
abcg2


@<TRIPOS>ATOM
      1 O28         20.4070    53.7880    15.8020 o          1 NVC      -0.608100
      2 C27         20.1740    55.0010    15.8420 c          1 NVC       0.609100
      3 C29         18.7390    55.5080    15.8270 c3         1 NVC      -0.155700
      4 C40         18.0220    55.0760    17.1130 c3         1 NVC      -0.068400
      5 C43         18.6370    55.6660    18.3790 c3         1 NVC      -0.085400
      6 C46         17.9410    55.1990    19.6550 c3         1 NVC      -0.072400
      7 C49         18.5860    55.7650    20.9190 c3         1 NVC      -0.088100
      8 C31         18.0590    54.9510    14.5660 c3         1 NVC       0.126000
      9 N34         16.7050    55.4400    14.4030 n          1 NVC      -0.313300
     10 O35         16.5950    56.7920    14.1000 oh         1 NVC      -0.429100
     11 C37         15.5820    54.7030    14.4660 c          1 NVC       0.607900
     12 O39         14.4420    55.1300    14.3400 o          1 NVC      -0.577100
     13 N17         21.1730    55.9000    15.9130 n          1 NVC      -0.407800
     14 C15         22.5610    55.4390    15.9290 c5         1 NVC       0.105400
     15 C24         23.3670    56.7340    15.7110 c5         1 NVC      -0.082400
     16 C21         22.4860    57.8090    16.3490 c5         1 NVC      -0.095400
     17 C18         21.0650    57.3690    15.9970 c5         1 NVC       0.111000
     18 C3          22.8890    54.7720    17.2280 cc         1 NVC       0.531600
     19 O1          23.8450    53.7890    17.1800 os         1 NVC      -0.289700
     20 C6          23.9830    53.3790    18.4870 ca         1 NVC       0.036100
     21 C5          23.0990    54.1390    19.2550 ca         1 NVC       0.057400
     22 N4          22.4240    55.0200    18.4040 nd         1 NVC      -0.568100
     23 C7          24.8120    52.4050    19.0050 ca         1 NVC      -0.090000
     24 C9          24.7230    52.2090    20.3830 ca         1 NVC      -0.093000
     25 C11         23.8430    52.9590    21.1770 ca         1 NVC      -0.126000
     26 C13         23.0160    53.9350    20.6290 ca         1 NVC      -0.048000
     27 H29         18.7260    56.5950    15.7610 hc         1 NVC       0.062700
     28 H40         16.9740    55.3780    17.0440 hc         1 NVC       0.051200
     29 H40A        18.0360    53.9830    17.1690 hc         1 NVC       0.051200
     30 H43         19.6960    55.3990    18.4360 hc         1 NVC       0.048200
     31 H43A        18.5970    56.7600    18.3250 hc         1 NVC       0.048200
     32 H46         16.8850    55.4860    19.6190 hc         1 NVC       0.037200
     33 H46A        17.9620    54.1050    19.6920 hc         1 NVC       0.037200
     34 H49         19.6350    55.4630    20.9890 hc         1 NVC       0.032700
     35 H49A        18.5540    56.8570    20.9180 hc         1 NVC       0.032700
     36 H49B        18.0760    55.4150    21.8190 hc         1 NVC       0.032700
     37 H31         18.6310    55.2220    13.6760 h1         1 NVC       0.071200
     38 H31A        18.0050    53.8650    14.6180 h1         1 NVC       0.071200
     39 HO35        16.3320    57.2360    14.9240 ho         1 NVC       0.440000
     40 H37         15.8130    53.6450    14.6580 h5         1 NVC       0.026200
     41 H15         22.7330    54.7170    15.1330 h1         1 NVC       0.098700
     42 H24         24.3650    56.6750    16.1430 hc         1 NVC       0.064700
     43 H24A        23.4660    56.9030    14.6370 hc         1 NVC       0.064700
     44 H21         22.6160    57.8090    17.4320 hc         1 NVC       0.065700
     45 H21A        22.7060    58.8090    15.9780 hc         1 NVC       0.065700
     46 H18         20.7480    57.7750    15.0340 h1         1 NVC       0.052200
     47 H18A        20.3440    57.6620    16.7560 h1         1 NVC       0.052200
     48 H7          25.4870    51.8300    18.3860 ha         1 NVC       0.135000
     49 H9          25.3480    51.4600    20.8500 ha         1 NVC       0.119000
     50 H11         23.8080    52.7720    22.2420 ha         1 NVC       0.118000
     51 H13         22.3360    54.5130    21.2410 ha         1 NVC       0.131000
@<TRIPOS>BOND
     1     1     2 2   
     2     2     3 1   
     3     2    13 1   
     4     3     4 1   
     5     3     8 1   
     6     3    27 1   
     7     4     5 1   
     8     4    28 1   
     9     4    29 1   
    10     5     6 1   
    11     5    30 1   
    12     5    31 1   
    13     6     7 1   
    14     6    32 1   
    15     6    33 1   
    16     7    34 1   
    17     7    35 1   
    18     7    36 1   
    19     8     9 1   
    20     8    37 1   
    21     8    38 1   
    22     9    10 1   
    23     9    11 1   
    24    10    39 1   
    25    11    12 2   
    26    11    40 1   
    27    13    14 1   
    28    13    17 1   
    29    14    15 1   
    30    14    18 1   
    31    14    41 1   
    32    15    16 1   
    33    15    42 1   
    34    15    43 1   
    35    16    17 1   
    36    16    44 1   
    37    16    45 1   
    38    17    46 1   
    39    17    47 1   
    40    18    19 1   
    41    18    22 2   
    42    19    20 1   
    43    20    21 ar  
    44    20    23 ar  
    45    21    22 1   
    46    21    26 ar  
    47    23    24 ar  
    48    23    48 1   
    49    24    25 ar  
    50    24    49 1   
    51    25    26 ar  
    52    25    50 1   
    53    26    51 1   
@<TRIPOS>SUBSTRUCTURE
     1 NVC         1 TEMP              0 ****  ****    0 ROOT
