@<TRIPOS>MOLECULE
NVD
   31    32     1     0     0
SMALL
abcg2


@<TRIPOS>ATOM
      1 N1           4.4220    -0.0060    -0.2120 nh         1 NVD      -0.833400
      2 N3          -3.2680    -0.0140    -0.3320 na         1 NVD      -0.198500
      3 C4           2.3000     1.1580    -0.2080 ca         1 NVD      -0.199500
      4 C5           0.9420     1.1640     0.0480 ca         1 NVD      -0.041000
      5 C6           0.2860     0.0490     0.5650 ca         1 NVD      -0.171300
      6 C7          -1.1920     0.0630     0.8110 c3         1 NVD       0.198100
      7 C8          -4.0660     1.0140    -0.6930 cc         1 NVD       0.374400
      8 C10          1.0520    -1.0860     0.8070 ca         1 NVD      -0.041000
      9 C1           5.0700     1.1590    -0.7630 c3         1 NVD       0.221600
     10 C11          2.4140    -1.1170     0.5560 ca         1 NVD      -0.199500
     11 C2           5.1800    -1.2140     0.0070 c3         1 NVD       0.221600
     12 C3           3.0800     0.0100     0.0380 ca         1 NVD       0.357000
     13 C9          -4.1050    -0.9390     0.2010 cc         1 NVD       0.374400
     14 N2          -1.8940    -0.0360    -0.4740 nu         1 NVD      -0.682700
     15 N4          -5.3040     0.7390    -0.4070 nd         1 NVD      -0.360500
     16 N5          -5.3280    -0.5020     0.1540 nd         1 NVD      -0.360500
     17 H1           2.7510     2.0580    -0.6020 ha         1 NVD       0.114500
     18 H2           0.3790     2.0680    -0.1590 ha         1 NVD       0.109500
     19 H3          -1.4650    -0.7470     1.4970 h1         1 NVD       0.052700
     20 H4          -1.4990     1.0020     1.2760 h1         1 NVD       0.052700
     21 H5          -3.6910     1.9180    -1.1470 h5         1 NVD       0.066600
     22 H6           0.5790    -1.9760     1.2060 ha         1 NVD       0.109500
     23 H7           4.6650     1.4380    -1.7400 h1         1 NVD       0.037033
     24 H8           4.9830     2.0290    -0.1050 h1         1 NVD       0.037033
     25 H9           6.1290     0.9530    -0.8940 h1         1 NVD       0.037033
     26 H10          2.9560    -2.0280     0.7720 ha         1 NVD       0.114500
     27 H11          6.2180    -1.0420    -0.2620 h1         1 NVD       0.037033
     28 H12          5.1600    -1.5300     1.0550 h1         1 NVD       0.037033
     29 H13          4.8150    -2.0490    -0.5980 h1         1 NVD       0.037033
     30 H14         -3.7770    -1.8920     0.5840 h5         1 NVD       0.066600
     31 H15         -1.6360    -0.8880    -0.9580 hn         1 NVD       0.435000
@<TRIPOS>BOND
     1     1     9 1   
     2     1    11 1   
     3     1    12 1   
     4     2     7 1   
     5     2    13 1   
     6     2    14 1   
     7     3     4 ar  
     8     3    12 ar  
     9     3    17 1   
    10     4     5 ar  
    11     4    18 1   
    12     5     6 1   
    13     5     8 ar  
    14     6    14 1   
    15     6    19 1   
    16     6    20 1   
    17     7    15 2   
    18     7    21 1   
    19     8    10 ar  
    20     8    22 1   
    21     9    23 1   
    22     9    24 1   
    23     9    25 1   
    24    10    12 ar  
    25    10    26 1   
    26    11    27 1   
    27    11    28 1   
    28    11    29 1   
    29    13    16 2   
    30    13    30 1   
    31    14    31 1   
    32    15    16 1   
@<TRIPOS>SUBSTRUCTURE
     1 NVD         1 TEMP              0 ****  ****    0 ROOT
