@<TRIPOS>MOLECULE
NVD
   31    32     1     0     0
SMALL
No Charge or Current Charge


@<TRIPOS>ATOM
      1 N1           3.9150    -0.5130    -0.1730 nh         1 NVD      -0.833400
      2 N3          -2.6350    -0.0570    -0.3690 na         1 NVD      -0.198500
      3 C4           2.1800     1.1940    -0.5120 ca         1 NVD      -0.199500
      4 C5           0.9030     1.7120    -0.2390 ca         1 NVD      -0.041000
      5 C6           0.0480     1.0500     0.6600 ca         1 NVD      -0.171300
      6 C7          -1.3420     1.6020     0.9480 c3         1 NVD       0.198100
      7 C8          -3.8230    -0.6600    -0.0050 cc         1 NVD       0.374400
      8 C10          0.4860    -0.1320     1.2840 ca         1 NVD      -0.041000
      9 C1           5.0370     0.3680    -0.5780 c3         1 NVD       0.221600
     10 C11          1.7630    -0.6470     1.0060 ca         1 NVD      -0.199500
     11 C2           4.2000    -1.9650    -0.0740 c3         1 NVD       0.221600
     12 C3           2.6260     0.0090     0.1060 ca         1 NVD       0.357000
     13 C9          -1.8840    -1.0450    -0.9780 cc         1 NVD       0.374400
     14 N2          -2.2630     1.3020    -0.1600 nu         1 NVD      -0.682700
     15 N4          -3.7910    -1.9350    -0.3720 nd         1 NVD      -0.360500
     16 N5          -2.5780    -2.1760    -0.9810 nd         1 NVD      -0.360500
     17 H1           2.8160     1.7170    -1.2190 ha         1 NVD       0.114500
     18 H2           0.5760     2.6260    -0.7320 ha         1 NVD       0.109500
     19 H3          -1.7270     1.1720     1.8830 h1         1 NVD       0.052700
     20 H4          -1.2760     2.6900     1.0920 h1         1 NVD       0.052700
     21 H5          -4.6290    -0.1410     0.4990 h5         1 NVD       0.066600
     22 H6          -0.1650    -0.6560     1.9810 ha         1 NVD       0.109500
     23 H7           5.0100     0.5530    -1.6600 h1         1 NVD       0.037033
     24 H8           4.9810     1.3300    -0.0520 h1         1 NVD       0.037033
     25 H9           6.0030    -0.0900    -0.3270 h1         1 NVD       0.037033
     26 H10          2.0810    -1.5560     1.5070 ha         1 NVD       0.114500
     27 H11          5.0470    -2.2420    -0.7180 h1         1 NVD       0.037033
     28 H12          4.4450    -2.2400     0.9600 h1         1 NVD       0.037033
     29 H13          3.3320    -2.5520    -0.4000 h1         1 NVD       0.037033
     30 H14         -0.8900    -0.8830    -1.3770 h5         1 NVD       0.066600
     31 H15         -2.2900     1.9200    -0.9790 hn         1 NVD       0.435000
@<TRIPOS>BOND
     1     1     9 1   
     2     1    11 1   
     3     1    12 1   
     4     2     7 1   
     5     2    13 1   
     6     2    14 1   
     7     3     4 ar  
     8     3    12 ar  
     9     3    17 1   
    10     4     5 ar  
    11     4    18 1   
    12     5     6 1   
    13     5     8 ar  
    14     6    14 1   
    15     6    19 1   
    16     6    20 1   
    17     7    15 2   
    18     7    21 1   
    19     8    10 ar  
    20     8    22 1   
    21     9    23 1   
    22     9    24 1   
    23     9    25 1   
    24    10    12 ar  
    25    10    26 1   
    26    11    27 1   
    27    11    28 1   
    28    11    29 1   
    29    13    16 2   
    30    13    30 1   
    31    14    31 1   
    32    15    16 1   
@<TRIPOS>SUBSTRUCTURE
     1 NVD         1 TEMP              0 ****  ****    0 ROOT
