@<TRIPOS>MOLECULE
NVE
   70    73     1     0     0
SMALL
abcg2


@<TRIPOS>ATOM
      1 C1           8.2640    -1.8400    -0.6290 c3         1 NVE      -0.098100
      2 C2           6.7710    -1.8830    -0.9090 c3         1 NVE       0.224800
      3 N3           6.0670    -0.8210    -0.1940 na         1 NVE      -0.755000
      4 C4           6.3870     0.5040    -0.5290 ca         1 NVE       0.569900
      5 C5           6.2490     1.5170     0.4260 ca         1 NVE       0.004600
      6 N6           5.9630     1.2290     1.7730 n          1 NVE      -0.301000
      7 C7           6.7160     1.9490     2.7920 c3         1 NVE       0.088300
      8 C8           4.8790     0.5190     2.1750 c          1 NVE       0.597600
      9 O9           4.5210     0.5200     3.3420 o          1 NVE      -0.548000
     10 C10          4.1280    -0.2920     1.1800 ca         1 NVE      -0.221600
     11 C11          2.7770    -0.5070     1.4200 ca         1 NVE      -0.006000
     12 C12          2.0600    -1.4370     0.6820 ca         1 NVE      -0.167300
     13 C13          2.7860    -2.1600    -0.2560 ca         1 NVE       0.391900
     14 N14          4.0680    -1.9590    -0.5200 nb         1 NVE      -0.721000
     15 C15          4.7310    -1.0290     0.1500 ca         1 NVE       0.618900
     16 C16          6.4980     2.8220     0.0240 ca         1 NVE      -0.091000
     17 C17          6.9220     3.0700    -1.2710 ca         1 NVE      -0.165000
     18 C18          7.0810     1.9900    -2.1210 ca         1 NVE       0.351900
     19 N19          6.8000     0.7450    -1.7590 nb         1 NVE      -0.693000
     20 C20         -4.1340     1.0690    -2.2550 c3         1 NVE      -0.099600
     21 C21         -5.5430     0.5560    -2.0940 c3         1 NVE       0.224100
     22 O22         -6.0400     0.9850    -0.8130 os         1 NVE      -0.614400
     23 P23         -7.3160     0.3110    -0.1170 p5         1 NVE       1.323800
     24 C24         -6.6610    -0.5010     1.3780 c3         1 NVE      -0.176400
     25 C26         -4.4570    -1.2330     0.7600 ca         1 NVE       0.119100
     26 C27         -3.7600    -0.2050     1.3820 ca         1 NVE      -0.150500
     27 C28         -2.4060    -0.0370     1.1200 ca         1 NVE      -0.078000
     28 C29         -1.7200    -0.8700     0.2440 ca         1 NVE      -0.112300
     29 C30         -2.4370    -1.8970    -0.3680 ca         1 NVE      -0.078000
     30 C31         -3.7870    -2.0790    -0.1200 ca         1 NVE      -0.150500
     31 C32         -0.2470    -0.7010     0.0030 c3         1 NVE      -0.025100
     32 C33          0.5890    -1.6460     0.8790 c3         1 NVE      -0.021100
     33 O34         -8.0890     1.5420     0.5460 os         1 NVE      -0.614400
     34 C35         -8.8970     2.4260    -0.2560 c3         1 NVE       0.224100
     35 C36         -9.6740     3.3320     0.6660 c3         1 NVE      -0.099600
     36 O37         -8.1050    -0.5660    -1.0170 o          1 NVE      -0.562000
     37 H1           8.7330    -0.9310    -1.0030 hc         1 NVE       0.040700
     38 H2           8.4590    -1.9120     0.4410 hc         1 NVE       0.040700
     39 H3           8.7480    -2.6850    -1.1180 hc         1 NVE       0.040700
     40 H4           6.5780    -1.8450    -1.9840 h1         1 NVE       0.058200
     41 H5           6.3690    -2.8270    -0.5490 h1         1 NVE       0.058200
     42 H6           6.2150     2.8660     3.1030 h1         1 NVE       0.048033
     43 H7           6.8550     1.3190     3.6670 h1         1 NVE       0.048033
     44 H8           7.6960     2.2000     2.3940 h1         1 NVE       0.048033
     45 H9           2.2870     0.0400     2.2160 ha         1 NVE       0.137000
     46 H10          2.3010    -2.9450    -0.8280 h4         1 NVE       0.021100
     47 H11          6.3870     3.6390     0.7250 ha         1 NVE       0.127000
     48 H12          7.1340     4.0750    -1.6060 ha         1 NVE       0.129000
     49 H13          7.4440     2.1300    -3.1330 h4         1 NVE       0.025100
     50 H14         -4.0920     2.1570    -2.1970 hc         1 NVE       0.047533
     51 H15         -3.4710     0.6500    -1.4980 hc         1 NVE       0.047533
     52 H16         -3.7560     0.7730    -3.2340 hc         1 NVE       0.047533
     53 H17         -6.1920     0.9510    -2.8780 h1         1 NVE       0.040700
     54 H18         -5.5590    -0.5330    -2.1640 h1         1 NVE       0.040700
     55 H19         -6.2230     0.2250     2.0640 h1         1 NVE       0.089200
     56 H20         -7.4870    -0.9830     1.9040 h1         1 NVE       0.089200
     57 H21         -4.2400     0.4750     2.0730 ha         1 NVE       0.125500
     58 H22         -1.8790     0.7720     1.6110 ha         1 NVE       0.113500
     59 H23         -1.9360    -2.5630    -1.0610 ha         1 NVE       0.113500
     60 H24         -4.3300    -2.8780    -0.6100 ha         1 NVE       0.125500
     61 H25         -0.0110    -0.8900    -1.0480 hc         1 NVE       0.048700
     62 H26          0.0500     0.3310     0.2080 hc         1 NVE       0.048700
     63 H27          0.3240    -2.6800     0.6470 hc         1 NVE       0.055200
     64 H28          0.3300    -1.4840     1.9290 hc         1 NVE       0.055200
     65 H29         -8.2480     3.0090    -0.9130 h1         1 NVE       0.040700
     66 H30         -9.5740     1.8390    -0.8800 h1         1 NVE       0.040700
     67 H31        -10.3390     2.7640     1.3170 hc         1 NVE       0.047533
     68 H32         -9.0110     3.9370     1.2840 hc         1 NVE       0.047533
     69 H33        -10.2860     4.0090     0.0700 hc         1 NVE       0.047533
     70 O25         -5.7690    -1.5200     0.9810 os         1 NVE      -0.329100
@<TRIPOS>BOND
     1     1     2 1   
     2     1    37 1   
     3     1    38 1   
     4     1    39 1   
     5     2     3 1   
     6     2    40 1   
     7     2    41 1   
     8     3     4 1   
     9     3    15 1   
    10     4     5 ar  
    11     4    19 ar  
    12     5     6 1   
    13     5    16 ar  
    14     6     7 1   
    15     6     8 1   
    16     7    42 1   
    17     7    43 1   
    18     7    44 1   
    19     8     9 2   
    20     8    10 1   
    21    10    11 ar  
    22    10    15 ar  
    23    11    12 ar  
    24    11    45 1   
    25    12    13 ar  
    26    12    32 1   
    27    13    14 ar  
    28    13    46 1   
    29    14    15 ar  
    30    16    17 ar  
    31    16    47 1   
    32    17    18 ar  
    33    17    48 1   
    34    18    19 ar  
    35    18    49 1   
    36    20    21 1   
    37    20    50 1   
    38    20    51 1   
    39    20    52 1   
    40    21    22 1   
    41    21    53 1   
    42    21    54 1   
    43    22    23 1   
    44    23    24 1   
    45    23    33 1   
    46    23    36 2   
    47    24    55 1   
    48    24    56 1   
    49    24    70 1   
    50    25    26 ar  
    51    25    30 ar  
    52    25    70 1   
    53    26    27 ar  
    54    26    57 1   
    55    27    28 ar  
    56    27    58 1   
    57    28    29 ar  
    58    28    31 1   
    59    29    30 ar  
    60    29    59 1   
    61    30    60 1   
    62    31    32 1   
    63    31    61 1   
    64    31    62 1   
    65    32    63 1   
    66    32    64 1   
    67    33    34 1   
    68    34    35 1   
    69    34    65 1   
    70    34    66 1   
    71    35    67 1   
    72    35    68 1   
    73    35    69 1   
@<TRIPOS>SUBSTRUCTURE
     1 NVE         1 TEMP              0 ****  ****    0 ROOT
