@<TRIPOS>MOLECULE
NVE
   70    73     1     0     0
SMALL
No Charge or Current Charge


@<TRIPOS>ATOM
      1 C1           7.6490    -1.4290     1.9020 c3         1 NVE      -0.098100
      2 C2           7.2230    -1.9230     0.5090 c3         1 NVE       0.224800
      3 N3           6.2470    -1.0250    -0.1310 na         1 NVE      -0.755000
      4 C4           6.6460     0.0030    -0.9310 ca         1 NVE       0.569900
      5 C5           6.6020     1.3080    -0.3690 ca         1 NVE       0.004600
      6 N6           6.0140     1.5720     0.9300 n          1 NVE      -0.301000
      7 C7           6.5830     2.7000     1.7090 c3         1 NVE       0.088300
      8 C8           4.8430     0.9480     1.4520 c          1 NVE       0.597600
      9 O9           4.3420     1.3750     2.4860 o          1 NVE      -0.548000
     10 C10          4.1960    -0.2390     0.7860 ca         1 NVE      -0.221600
     11 C11          2.8140    -0.4440     0.9900 ca         1 NVE      -0.006000
     12 C12          2.1970    -1.5640     0.4170 ca         1 NVE      -0.167300
     13 C13          2.9920    -2.4470    -0.3280 ca         1 NVE       0.391900
     14 N14          4.3150    -2.2690    -0.5080 nb         1 NVE      -0.721000
     15 C15          4.9090    -1.1930     0.0360 ca         1 NVE       0.618900
     16 C16          6.8980     2.3950    -1.2210 ca         1 NVE      -0.091000
     17 C17          7.3440     2.1320    -2.5240 ca         1 NVE      -0.165000
     18 C18          7.4370     0.8030    -2.9570 ca         1 NVE       0.351900
     19 N19          7.0840    -0.2420    -2.1820 nb         1 NVE      -0.693000
     20 C20         -4.3850     2.4860    -0.9360 c3         1 NVE      -0.099600
     21 C21         -5.5780     2.8030    -0.0130 c3         1 NVE       0.224100
     22 O22         -6.0130     1.5940     0.6270 os         1 NVE      -0.614400
     23 P23         -6.9810     0.5230    -0.1080 p5         1 NVE       1.323800
     24 C24         -6.6960    -1.0280     0.8740 c3         1 NVE      -0.176400
     25 C26         -4.4050    -1.6860     0.1480 ca         1 NVE       0.119100
     26 C27         -3.7500    -0.7100     0.9290 ca         1 NVE      -0.150500
     27 C28         -2.3740    -0.4780     0.7580 ca         1 NVE      -0.078000
     28 C29         -1.6390    -1.2180    -0.1870 ca         1 NVE      -0.112300
     29 C30         -2.2910    -2.2020    -0.9530 ca         1 NVE      -0.078000
     30 C31         -3.6660    -2.4350    -0.7810 ca         1 NVE      -0.150500
     31 C32         -0.1480    -0.9650    -0.3670 c3         1 NVE      -0.025100
     32 C33          0.7050    -1.8130     0.5980 c3         1 NVE      -0.021100
     33 O34         -8.4400     0.9920     0.4070 os         1 NVE      -0.614400
     34 C35         -9.1230     2.0540    -0.2650 c3         1 NVE       0.224100
     35 C36        -10.5020     2.1950     0.3950 c3         1 NVE      -0.099600
     36 O37         -6.8300     0.3690    -1.5840 o          1 NVE      -0.562000
     37 H1           8.1200    -0.4410     1.8350 hc         1 NVE       0.040700
     38 H2           6.7820    -1.3580     2.5690 hc         1 NVE       0.040700
     39 H3           8.3700    -2.1240     2.3460 hc         1 NVE       0.040700
     40 H4           8.1130    -2.0080    -0.1300 h1         1 NVE       0.058200
     41 H5           6.7900    -2.9290     0.6020 h1         1 NVE       0.058200
     42 H6           5.9410     3.5840     1.6060 h1         1 NVE       0.048033
     43 H7           6.6560     2.4280     2.7700 h1         1 NVE       0.048033
     44 H8           7.5910     2.9420     1.3510 h1         1 NVE       0.048033
     45 H9           2.2250     0.2580     1.5770 ha         1 NVE       0.137000
     46 H10          2.5580    -3.3320    -0.7930 h4         1 NVE       0.021100
     47 H11          6.7900     3.4240    -0.8860 ha         1 NVE       0.127000
     48 H12          7.6060     2.9430    -3.1980 ha         1 NVE       0.129000
     49 H13          7.7820     0.5690    -3.9640 h4         1 NVE       0.025100
     50 H14         -3.5770     2.0080    -0.3700 hc         1 NVE       0.047533
     51 H15         -4.6710     1.8290    -1.7630 hc         1 NVE       0.047533
     52 H16         -3.9910     3.4140    -1.3670 hc         1 NVE       0.047533
     53 H17         -5.2640     3.5340     0.7420 h1         1 NVE       0.040700
     54 H18         -6.3840     3.2560    -0.6040 h1         1 NVE       0.040700
     55 H19         -6.3970    -0.7320     1.8850 h1         1 NVE       0.089200
     56 H20         -7.6890    -1.4860     0.9380 h1         1 NVE       0.089200
     57 H21         -4.2860    -0.1320     1.6750 ha         1 NVE       0.125500
     58 H22         -1.8790     0.2780     1.3650 ha         1 NVE       0.113500
     59 H23         -1.7320    -2.7880    -1.6800 ha         1 NVE       0.113500
     60 H24         -4.1640    -3.1960    -1.3770 ha         1 NVE       0.125500
     61 H25          0.1510    -1.1860    -1.3990 hc         1 NVE       0.048700
     62 H26          0.0750     0.0970    -0.2060 hc         1 NVE       0.048700
     63 H27          0.4740    -2.8740     0.4400 hc         1 NVE       0.055200
     64 H28          0.4100    -1.5870     1.6300 hc         1 NVE       0.055200
     65 H29         -8.5770     3.0010    -0.1690 h1         1 NVE       0.040700
     66 H30         -9.2520     1.8290    -1.3320 h1         1 NVE       0.040700
     67 H31        -11.0730     1.2640     0.2990 hc         1 NVE       0.047533
     68 H32        -10.3980     2.4340     1.4600 hc         1 NVE       0.047533
     69 H33        -11.0720     2.9990    -0.0840 hc         1 NVE       0.047533
     70 O25         -5.7540    -1.9570     0.2700 os         1 NVE      -0.329100
@<TRIPOS>BOND
     1     1     2 1   
     2     1    37 1   
     3     1    38 1   
     4     1    39 1   
     5     2     3 1   
     6     2    40 1   
     7     2    41 1   
     8     3     4 1   
     9     3    15 1   
    10     4     5 ar  
    11     4    19 ar  
    12     5     6 1   
    13     5    16 ar  
    14     6     7 1   
    15     6     8 1   
    16     7    42 1   
    17     7    43 1   
    18     7    44 1   
    19     8     9 2   
    20     8    10 1   
    21    10    11 ar  
    22    10    15 ar  
    23    11    12 ar  
    24    11    45 1   
    25    12    13 ar  
    26    12    32 1   
    27    13    14 ar  
    28    13    46 1   
    29    14    15 ar  
    30    16    17 ar  
    31    16    47 1   
    32    17    18 ar  
    33    17    48 1   
    34    18    19 ar  
    35    18    49 1   
    36    20    21 1   
    37    20    50 1   
    38    20    51 1   
    39    20    52 1   
    40    21    22 1   
    41    21    53 1   
    42    21    54 1   
    43    22    23 1   
    44    23    24 1   
    45    23    33 1   
    46    23    36 2   
    47    24    55 1   
    48    24    56 1   
    49    24    70 1   
    50    25    26 ar  
    51    25    30 ar  
    52    25    70 1   
    53    26    27 ar  
    54    26    57 1   
    55    27    28 ar  
    56    27    58 1   
    57    28    29 ar  
    58    28    31 1   
    59    29    30 ar  
    60    29    59 1   
    61    30    60 1   
    62    31    32 1   
    63    31    61 1   
    64    31    62 1   
    65    32    63 1   
    66    32    64 1   
    67    33    34 1   
    68    34    35 1   
    69    34    65 1   
    70    34    66 1   
    71    35    67 1   
    72    35    68 1   
    73    35    69 1   
@<TRIPOS>SUBSTRUCTURE
     1 NVE         1 TEMP              0 ****  ****    0 ROOT
