@<TRIPOS>MOLECULE
NVF
   39    41     1     0     0
SMALL
abcg2


@<TRIPOS>ATOM
      1 C13        -34.1910    27.9820   -33.8240 c6         1 NVF      -0.012100
      2 C15        -32.2900    26.4620   -34.1730 cc         1 NVF      -0.193300
      3 C17        -31.2220    24.2340   -34.2620 cc         1 NVF      -0.255000
      4 C20        -33.7090    26.0930   -32.2290 ca         1 NVF       0.220500
      5 C01        -30.9970    23.0700   -29.8780 c3         1 NVF      -0.081100
      6 C02        -31.3020    23.4380   -28.4180 c3         1 NVF      -0.141000
      7 C03        -31.6550    22.1690   -27.6340 c3         1 NVF      -0.081100
      8 C04        -30.0720    24.0960   -27.7990 c3         1 NVF      -0.081100
      9 C05        -32.4710    24.4190   -28.4220 c          1 NVF       0.587100
     10 C07        -33.8530    23.8400   -28.6860 c3         1 NVF      -0.085400
     11 C09        -34.8010    25.9120   -30.2610 ca         1 NVF       0.237300
     12 C11        -35.3090    27.6810   -31.5580 ca         1 NVF       0.121900
     13 C12        -34.4040    27.2730   -32.5190 ca         1 NVF      -0.190300
     14 C14        -32.7420    27.8810   -34.2980 c6         1 NVF      -0.003100
     15 C18        -32.1180    24.3270   -33.2470 cd         1 NVF      -0.081000
     16 C19        -32.7340    25.6120   -33.1940 cd         1 NVF      -0.192500
     17 N10        -35.5160    27.0140   -30.4270 nb         1 NVF      -0.159000
     18 N21        -33.9110    25.4150   -31.1010 nb         1 NVF      -0.193000
     19 O06        -32.3180    25.6000   -28.2350 o          1 NVF      -0.494100
     20 S08        -35.1540    25.0730   -28.7580 ss         1 NVF      -0.264300
     21 S16        -31.1130    25.7040   -35.1530 ss         1 NVF       0.229000
     22 H1         -34.4870    29.0280   -33.7370 hc         1 NVF       0.055700
     23 H2         -34.8440    27.5310   -34.5790 hc         1 NVF       0.055700
     24 H3         -30.6260    23.3810   -34.5470 h4         1 NVF       0.153000
     25 H4         -30.1410    22.3940   -29.9070 hc         1 NVF       0.040589
     26 H5         -31.8330    22.5620   -30.3610 hc         1 NVF       0.040589
     27 H6         -30.7450    23.9520   -30.4690 hc         1 NVF       0.040589
     28 H7         -31.9400    22.3960   -26.6050 hc         1 NVF       0.040589
     29 H8         -32.4650    21.6030   -28.0950 hc         1 NVF       0.040589
     30 H9         -30.7830    21.5140   -27.5990 hc         1 NVF       0.040589
     31 H10        -30.2490    24.3890   -26.7630 hc         1 NVF       0.040589
     32 H11        -29.2410    23.3890   -27.8050 hc         1 NVF       0.040589
     33 H12        -29.7590    24.9800   -28.3520 hc         1 NVF       0.040589
     34 H13        -34.1310    23.1830   -27.8570 h1         1 NVF       0.096700
     35 H14        -33.8560    23.2210   -29.5840 h1         1 NVF       0.096700
     36 H15        -35.8930    28.5850   -31.7010 h4         1 NVF       0.024100
     37 H16        -32.0960    28.5210   -33.6880 hc         1 NVF       0.060200
     38 H17        -32.6600    28.2380   -35.3250 hc         1 NVF       0.060200
     39 H18        -32.3480    23.5170   -32.5720 ha         1 NVF       0.146000
@<TRIPOS>BOND
     1     1    13 1   
     2     1    14 1   
     3     1    22 1   
     4     1    23 1   
     5     2    14 1   
     6     2    16 2   
     7     2    21 1   
     8     3    15 2   
     9     3    21 1   
    10     3    24 1   
    11     4    13 ar  
    12     4    16 1   
    13     4    18 ar  
    14     5     6 1   
    15     5    25 1   
    16     5    26 1   
    17     5    27 1   
    18     6     7 1   
    19     6     8 1   
    20     6     9 1   
    21     7    28 1   
    22     7    29 1   
    23     7    30 1   
    24     8    31 1   
    25     8    32 1   
    26     8    33 1   
    27     9    10 1   
    28     9    19 2   
    29    10    20 1   
    30    10    34 1   
    31    10    35 1   
    32    11    17 ar  
    33    11    18 ar  
    34    11    20 1   
    35    12    13 ar  
    36    12    17 ar  
    37    12    36 1   
    38    14    37 1   
    39    14    38 1   
    40    15    16 1   
    41    15    39 1   
@<TRIPOS>SUBSTRUCTURE
     1 NVF         1 TEMP              0 ****  ****    0 ROOT
