@<TRIPOS>MOLECULE
NVF
   39    41     1     0     0
SMALL
No Charge or Current Charge


@<TRIPOS>ATOM
      1 C13        -33.6460    28.0740   -33.4630 c6         1 NVF      -0.012100
      2 C15        -32.1730    26.1240   -34.1300 cc         1 NVF      -0.193300
      3 C17        -31.5960    23.7110   -34.4760 cc         1 NVF      -0.255000
      4 C20        -33.7560    25.8230   -32.2540 ca         1 NVF       0.220500
      5 C01        -31.1930    23.7240   -30.0450 c3         1 NVF      -0.081100
      6 C02        -31.4320    23.7750   -28.5100 c3         1 NVF      -0.141000
      7 C03        -31.3080    22.3420   -27.9180 c3         1 NVF      -0.081100
      8 C04        -30.3310    24.6730   -27.8710 c3         1 NVF      -0.081100
      9 C05        -32.8560    24.3550   -28.2100 c          1 NVF       0.587100
     10 C07        -34.0770    23.4960   -28.6080 c3         1 NVF      -0.085400
     11 C09        -35.0200    25.5610   -30.3540 ca         1 NVF       0.237300
     12 C11        -34.9910    27.6530   -31.3090 ca         1 NVF       0.121900
     13 C12        -34.1230    27.1810   -32.3090 ca         1 NVF      -0.190300
     14 C14        -32.2820    27.6310   -34.0610 c6         1 NVF      -0.003100
     15 C18        -32.4990    23.9170   -33.4630 cd         1 NVF      -0.081000
     16 C19        -32.8340    25.2880   -33.2640 cd         1 NVF      -0.192500
     17 N10        -35.4370    26.8450   -30.3270 nb         1 NVF      -0.159000
     18 N21        -34.2050    25.0110   -31.2780 nb         1 NVF      -0.193000
     19 O06        -33.0090    25.4390   -27.6550 o          1 NVF      -0.494100
     20 S08        -35.5870    24.5020   -29.0290 ss         1 NVF      -0.264300
     21 S16        -31.1210    25.2320   -35.2240 ss         1 NVF       0.229000
     22 H1         -33.5830    29.1210   -33.1380 hc         1 NVF       0.055700
     23 H2         -34.4050    28.0470   -34.2570 hc         1 NVF       0.055700
     24 H3         -31.1740    22.7830   -34.8380 h4         1 NVF       0.153000
     25 H4         -30.1770    23.3780   -30.2710 hc         1 NVF       0.040589
     26 H5         -31.8890    23.0390   -30.5420 hc         1 NVF       0.040589
     27 H6         -31.3150    24.7180   -30.4920 hc         1 NVF       0.040589
     28 H7         -31.5140    22.3460   -26.8410 hc         1 NVF       0.040589
     29 H8         -32.0070    21.6450   -28.3960 hc         1 NVF       0.040589
     30 H9         -30.2960    21.9450   -28.0660 hc         1 NVF       0.040589
     31 H10        -30.4590    24.7380   -26.7830 hc         1 NVF       0.040589
     32 H11        -29.3300    24.2690   -28.0660 hc         1 NVF       0.040589
     33 H12        -30.3650    25.6910   -28.2790 hc         1 NVF       0.040589
     34 H13        -34.3030    22.8270   -27.7690 h1         1 NVF       0.096700
     35 H14        -33.8140    22.8750   -29.4720 h1         1 NVF       0.096700
     36 H15        -35.3360    28.6850   -31.2930 h4         1 NVF       0.024100
     37 H16        -31.4720    28.0250   -33.4320 hc         1 NVF       0.060200
     38 H17        -32.1450    28.0850   -35.0520 hc         1 NVF       0.060200
     39 H18        -32.9190    23.1060   -32.8740 ha         1 NVF       0.146000
@<TRIPOS>BOND
     1     1    13 1   
     2     1    14 1   
     3     1    22 1   
     4     1    23 1   
     5     2    14 1   
     6     2    16 2   
     7     2    21 1   
     8     3    15 2   
     9     3    21 1   
    10     3    24 1   
    11     4    13 ar  
    12     4    16 1   
    13     4    18 ar  
    14     5     6 1   
    15     5    25 1   
    16     5    26 1   
    17     5    27 1   
    18     6     7 1   
    19     6     8 1   
    20     6     9 1   
    21     7    28 1   
    22     7    29 1   
    23     7    30 1   
    24     8    31 1   
    25     8    32 1   
    26     8    33 1   
    27     9    10 1   
    28     9    19 2   
    29    10    20 1   
    30    10    34 1   
    31    10    35 1   
    32    11    17 ar  
    33    11    18 ar  
    34    11    20 1   
    35    12    13 ar  
    36    12    17 ar  
    37    12    36 1   
    38    14    37 1   
    39    14    38 1   
    40    15    16 1   
    41    15    39 1   
@<TRIPOS>SUBSTRUCTURE
     1 NVF         1 TEMP              0 ****  ****    0 ROOT
