@<TRIPOS>MOLECULE
NVG
   52    55     1     0     0
SMALL
abcg2


@<TRIPOS>ATOM
      1 OAC         -2.8550     0.5270    -1.6380 o          1 NVG      -0.552000
      2 CAV         -3.5890     1.2270    -0.9540 c          1 NVG       0.717400
      3 NAO         -3.8810     2.5020    -1.2790 nc         1 NVG      -0.775100
      4 CAT         -4.6900     3.2310    -0.5350 cd         1 NVG       0.787500
      5 NAA         -4.9380     4.4840    -0.9120 nv         1 NVG      -1.034200
      6 CAF         -5.2940     2.7190     0.6540 cd         1 NVG      -0.485600
      7 CAG         -4.9840     1.4500     0.9810 cc         1 NVG       0.032600
      8 NBD         -4.1590     0.6930     0.2160 n          1 NVG      -0.326000
      9 CBC         -3.8760    -0.6740     0.6300 c5         1 NVG       0.341700
     10 OAS         -2.5110    -0.8740     0.8310 os         1 NVG      -0.439000
     11 CBA         -4.3530    -1.7560    -0.3490 c5         1 NVG       0.082300
     12 OAE         -5.6740    -2.1080    -0.0380 oh         1 NVG      -0.717000
     13 CAZ         -3.3260    -2.8640    -0.0960 c5         1 NVG       0.114300
     14 OAD         -3.6350    -3.5720     1.0770 oh         1 NVG      -0.715000
     15 CBB         -2.0730    -2.0320     0.1160 c5         1 NVG       0.145300
     16 CAN         -0.9650    -2.7160     0.8960 c3         1 NVG       0.114000
     17 NAQ          0.2240    -1.9020     0.9940 ns         1 NVG      -0.499900
     18 CAU          1.1530    -1.8430     0.0260 c          1 NVG       0.598100
     19 OAB          1.0980    -2.5310    -0.9850 o          1 NVG      -0.617100
     20 CAL          2.2650    -0.8440     0.2620 c3         1 NVG      -0.149400
     21 CAM          3.5990    -1.3490    -0.2640 c3         1 NVG      -0.082700
     22 CAW          4.6820    -0.3340    -0.1420 cc         1 NVG       0.418800
     23 NAR          5.9840    -0.6590    -0.3610 na         1 NVG      -0.317600
     24 CAY          6.7280     0.4790    -0.1990 ca         1 NVG      -0.078200
     25 CAK          8.0890     0.7420    -0.2970 ca         1 NVG      -0.116000
     26 CAI          8.4890     2.0470    -0.0590 ca         1 NVG      -0.095000
     27 CAH          7.5640     3.0500     0.2650 ca         1 NVG      -0.136000
     28 CAJ          6.2100     2.7780     0.3610 ca         1 NVG      -0.049000
     29 CAX          5.7870     1.4710     0.1250 ca         1 NVG       0.071400
     30 NAP          4.5230     0.9270     0.1520 nd         1 NVG      -0.583100
     31 HAA1        -4.5130     4.8560    -1.7440 hn         1 NVG       0.501500
     32 HAA2        -5.5630     5.0760    -0.3940 hn         1 NVG       0.501500
     33 HAF         -5.9550     3.3110     1.2690 ha         1 NVG       0.203000
     34 HAG         -5.3800     0.9800     1.8700 h4         1 NVG       0.202000
     35 HBC         -4.4100    -0.8030     1.5780 h2         1 NVG       0.072700
     36 HBA         -4.2600    -1.4130    -1.3810 h1         1 NVG       0.088700
     37 HBB         -1.6890    -1.7300    -0.8640 h1         1 NVG       0.094700
     38 HAE         -6.0810    -2.4970    -0.8190 ho         1 NVG       0.518000
     39 HAZ         -3.2180    -3.5320    -0.9590 h1         1 NVG       0.065700
     40 HAD         -4.5820    -3.7520     1.0700 ho         1 NVG       0.518000
     41 HAN1        -1.2980    -2.9500     1.9070 h1         1 NVG       0.071700
     42 HAN2        -0.7160    -3.6580     0.4070 h1         1 NVG       0.071700
     43 HAQ          0.3120    -1.2900     1.7890 hn         1 NVG       0.321500
     44 HAL1         1.9880     0.0800    -0.2540 hc         1 NVG       0.078200
     45 HAL2         2.3440    -0.5890     1.3200 hc         1 NVG       0.078200
     46 HAM1         3.8980    -2.2550     0.2700 hc         1 NVG       0.067200
     47 HAM2         3.5040    -1.6360    -1.3150 hc         1 NVG       0.067200
     48 HAR          6.3320    -1.5740    -0.5980 hn         1 NVG       0.356000
     49 HAK          8.8050    -0.0310    -0.5450 ha         1 NVG       0.116000
     50 HAI          9.5400     2.2970    -0.1230 ha         1 NVG       0.111000
     51 HAH          7.9190     4.0560     0.4450 ha         1 NVG       0.113000
     52 HAJ          5.4980     3.5540     0.6120 ha         1 NVG       0.127000
@<TRIPOS>BOND
     1     1     2 2   
     2     2     3 1   
     3     2     8 1   
     4     3     4 2   
     5     4     5 1   
     6     4     6 1   
     7     5    31 1   
     8     5    32 1   
     9     6     7 2   
    10     6    33 1   
    11     7     8 1   
    12     7    34 1   
    13     8     9 1   
    14     9    10 1   
    15     9    11 1   
    16     9    35 1   
    17    10    15 1   
    18    11    12 1   
    19    11    13 1   
    20    11    36 1   
    21    12    38 1   
    22    13    14 1   
    23    13    15 1   
    24    13    39 1   
    25    14    40 1   
    26    15    16 1   
    27    15    37 1   
    28    16    17 1   
    29    16    41 1   
    30    16    42 1   
    31    17    18 1   
    32    17    43 1   
    33    18    19 2   
    34    18    20 1   
    35    20    21 1   
    36    20    44 1   
    37    20    45 1   
    38    21    22 1   
    39    21    46 1   
    40    21    47 1   
    41    22    23 1   
    42    22    30 2   
    43    23    24 1   
    44    23    48 1   
    45    24    25 ar  
    46    24    29 ar  
    47    25    26 ar  
    48    25    49 1   
    49    26    27 ar  
    50    26    50 1   
    51    27    28 ar  
    52    27    51 1   
    53    28    29 ar  
    54    28    52 1   
    55    29    30 1   
@<TRIPOS>SUBSTRUCTURE
     1 NVG         1 TEMP              0 ****  ****    0 ROOT
