@<TRIPOS>MOLECULE
NVG
   52    55     1     0     0
SMALL
No Charge or Current Charge


@<TRIPOS>ATOM
      1 OAC         -2.7080     0.5460    -1.5930 o          1 NVG      -0.552000
      2 CAV         -3.6100     1.1570    -1.0460 c          1 NVG       0.717400
      3 NAO         -4.0140     2.3500    -1.5850 nc         1 NVG      -0.775100
      4 CAT         -4.9900     3.0060    -1.0590 cd         1 NVG       0.787500
      5 NAA         -5.2970     4.1330    -1.6660 nv         1 NVG      -1.034200
      6 CAF         -5.7250     2.5800     0.0630 cd         1 NVG      -0.485600
      7 CAG         -5.3530     1.3910     0.6430 cc         1 NVG       0.032600
      8 NBD         -4.2890     0.6760     0.0970 n          1 NVG      -0.326000
      9 CBC         -3.8490    -0.5720     0.7780 c5         1 NVG       0.341700
     10 OAS         -2.4140    -0.7070     0.8920 os         1 NVG      -0.439000
     11 CBA         -4.3770    -1.8010    -0.0480 c5         1 NVG       0.082300
     12 OAE         -5.7200    -2.2210     0.2880 oh         1 NVG      -0.717000
     13 CAZ         -3.3330    -2.8680     0.3810 c5         1 NVG       0.114300
     14 OAD         -3.6540    -3.3770     1.6830 oh         1 NVG      -0.715000
     15 CBB         -2.0370    -1.9920     0.3300 c5         1 NVG       0.145300
     16 CAN         -0.8060    -2.5710     1.0730 c3         1 NVG       0.114000
     17 NAQ          0.4070    -1.7460     0.9720 ns         1 NVG      -0.499900
     18 CAU          1.1620    -1.6090    -0.1690 c          1 NVG       0.598100
     19 OAB          0.8950    -2.2080    -1.2010 o          1 NVG      -0.617100
     20 CAL          2.3370    -0.6350    -0.0640 c3         1 NVG      -0.149400
     21 CAM          3.6950    -1.3820    -0.0160 c3         1 NVG      -0.082700
     22 CAW          4.8770    -0.4580     0.0900 cc         1 NVG       0.418800
     23 NAR          5.5080     0.1280    -1.0040 na         1 NVG      -0.317600
     24 CAY          6.5140     0.9000    -0.5150 ca         1 NVG      -0.078200
     25 CAK          7.4490     1.6980    -1.1850 ca         1 NVG      -0.116000
     26 CAI          8.3880     2.3970    -0.3990 ca         1 NVG      -0.095000
     27 CAH          8.3650     2.2790     1.0130 ca         1 NVG      -0.136000
     28 CAJ          7.4030     1.4620     1.6470 ca         1 NVG      -0.049000
     29 CAX          6.4790     0.7760     0.8440 ca         1 NVG       0.071400
     30 NAP          5.4530    -0.0750     1.2470 nd         1 NVG      -0.583100
     31 HAA1        -4.9030     4.2030    -2.5940 hn         1 NVG       0.501500
     32 HAA2        -6.2560     4.4380    -1.5720 hn         1 NVG       0.501500
     33 HAF         -6.5400     3.1740     0.4570 ha         1 NVG       0.203000
     34 HAG         -5.8090     0.9290     1.5170 h4         1 NVG       0.202000
     35 HBC         -4.2830    -0.5750     1.7860 h2         1 NVG       0.072700
     36 HBA         -4.2880    -1.6100    -1.1280 h1         1 NVG       0.088700
     37 HBB         -1.7530    -1.8330    -0.7190 h1         1 NVG       0.094700
     38 HAE         -6.3480    -1.6400    -0.2060 ho         1 NVG       0.518000
     39 HAZ         -3.2830    -3.6890    -0.3490 h1         1 NVG       0.065700
     40 HAD         -4.6430    -3.3280     1.7110 ho         1 NVG       0.518000
     41 HAN1        -1.0570    -2.6930     2.1350 h1         1 NVG       0.071700
     42 HAN2        -0.5880    -3.5690     0.6700 h1         1 NVG       0.071700
     43 HAQ          0.6860    -1.1980     1.7770 hn         1 NVG       0.321500
     44 HAL1         2.3290     0.0160    -0.9460 hc         1 NVG       0.078200
     45 HAL2         2.2420    -0.0280     0.8430 hc         1 NVG       0.078200
     46 HAM1         3.6970    -2.0720     0.8370 hc         1 NVG       0.067200
     47 HAM2         3.8010    -2.0040    -0.9130 hc         1 NVG       0.067200
     48 HAR          5.2540    -0.0040    -1.9750 hn         1 NVG       0.356000
     49 HAK          7.4520     1.7780    -2.2700 ha         1 NVG       0.116000
     50 HAI          9.1330     3.0290    -0.8780 ha         1 NVG       0.111000
     51 HAH          9.0930     2.8210     1.6130 ha         1 NVG       0.113000
     52 HAJ          7.3760     1.3650     2.7300 ha         1 NVG       0.127000
@<TRIPOS>BOND
     1     1     2 2   
     2     2     3 1   
     3     2     8 1   
     4     3     4 2   
     5     4     5 1   
     6     4     6 1   
     7     5    31 1   
     8     5    32 1   
     9     6     7 2   
    10     6    33 1   
    11     7     8 1   
    12     7    34 1   
    13     8     9 1   
    14     9    10 1   
    15     9    11 1   
    16     9    35 1   
    17    10    15 1   
    18    11    12 1   
    19    11    13 1   
    20    11    36 1   
    21    12    38 1   
    22    13    14 1   
    23    13    15 1   
    24    13    39 1   
    25    14    40 1   
    26    15    16 1   
    27    15    37 1   
    28    16    17 1   
    29    16    41 1   
    30    16    42 1   
    31    17    18 1   
    32    17    43 1   
    33    18    19 2   
    34    18    20 1   
    35    20    21 1   
    36    20    44 1   
    37    20    45 1   
    38    21    22 1   
    39    21    46 1   
    40    21    47 1   
    41    22    23 1   
    42    22    30 2   
    43    23    24 1   
    44    23    48 1   
    45    24    25 ar  
    46    24    29 ar  
    47    25    26 ar  
    48    25    49 1   
    49    26    27 ar  
    50    26    50 1   
    51    27    28 ar  
    52    27    51 1   
    53    28    29 ar  
    54    28    52 1   
    55    29    30 1   
@<TRIPOS>SUBSTRUCTURE
     1 NVG         1 TEMP              0 ****  ****    0 ROOT
