@<TRIPOS>MOLECULE
NVH
   46    49     1     0     0
SMALL
No Charge or Current Charge


@<TRIPOS>ATOM
      1 C1          -2.6650    -3.8520     0.6660 ca         1 NVH       0.064000
      2 C10          1.7460    -1.3680    -0.0710 ca         1 NVH      -0.146000
      3 C11          2.4540    -2.5270    -0.4580 ca         1 NVH       0.433900
      4 C13         -2.1990     4.4290     0.4120 ca         1 NVH       0.243000
      5 C14         -1.7320     4.2730    -0.8970 ca         1 NVH      -0.222500
      6 C15         -1.8600     3.0350    -1.5400 ca         1 NVH       0.255000
      7 C16         -2.4510     1.9390    -0.8800 ca         1 NVH      -0.234300
      8 C17         -2.9250     2.1190     0.4360 ca         1 NVH       0.255000
      9 C18         -2.7980     3.3560     1.0800 ca         1 NVH      -0.222500
     10 C19          5.1180     1.9390    -0.7980 c3         1 NVH      -0.338100
     11 C2          -3.8960    -4.0710     0.0420 ca         1 NVH      -0.207000
     12 C3          -4.3990    -3.0880    -0.8170 ca         1 NVH       0.437900
     13 C4          -2.5680    -1.6960    -0.4570 ca         1 NVH       0.588900
     14 C5          -0.4520    -0.4300    -0.8300 c          1 NVH       0.631000
     15 C6          -2.0080    -2.6420     0.3860 ca         1 NVH      -0.390500
     16 C7           4.5060    -1.5070    -0.1040 ca         1 NVH       0.447900
     17 C8           3.8860    -0.3200     0.2930 ca         1 NVH      -0.323500
     18 C9           2.4830    -0.2340     0.3130 ca         1 NVH       0.037000
     19 F2          -1.4120     2.9130    -2.8090 f          1 NVH      -0.159000
     20 F3          -3.5150     1.0980     1.0950 f          1 NVH      -0.159000
     21 N1          -3.7450    -1.9330    -1.0720 nb         1 NVH      -0.725000
     22 N2           3.8050    -2.6010    -0.4770 nb         1 NVH      -0.672000
     23 N3          -1.8610    -0.5140    -0.8550 n          1 NVH      -0.409300
     24 N4           0.2950    -1.3370    -0.0770 n          1 NVH      -0.292800
     25 O1           0.1290     0.4220    -1.4880 o          1 NVH      -0.507000
     26 S1          -0.5010    -2.2230     1.1540 sy         1 NVH       1.201300
     27 S2           4.9070     1.0650     0.7490 sy         1 NVH       1.068500
     28 H1          -2.2450    -4.5940     1.3460 ha         1 NVH       0.145000
     29 H2           1.9220    -3.4240    -0.7730 h4         1 NVH       0.038100
     30 H3          -3.6640     0.3750    -1.6460 h1         1 NVH       0.093200
     31 H4          -2.2200     0.6280    -2.6030 h1         1 NVH       0.093200
     32 H5          -1.2740     5.1110    -1.4150 ha         1 NVH       0.159000
     33 H6          -3.1640     3.4820     2.0940 ha         1 NVH       0.159000
     34 H7           4.1280     2.2300    -1.1640 h1         1 NVH       0.106367
     35 H8           5.7360     2.8230    -0.6070 h1         1 NVH       0.106367
     36 H9           5.6120     1.2680    -1.5080 h1         1 NVH       0.106367
     37 H10         -4.4570    -4.9850     0.2150 ha         1 NVH       0.140000
     38 H11         -5.3520    -3.2300    -1.3250 h4         1 NVH       0.031100
     39 H12          5.5910    -1.6010    -0.1380 h4         1 NVH       0.048100
     40 H13          1.9770     0.6830     0.6150 ha         1 NVH       0.158000
     41 C12         -2.5890     0.5810    -1.5700 c3         1 NVH       0.176300
     42 O2           0.2460    -3.4550     1.4380 o          1 NVH      -0.511000
     43 O3          -0.8190    -1.2790     2.2310 o          1 NVH      -0.511000
     44 F1          -2.0770     5.6220     1.0310 f          1 NVH      -0.160000
     45 O4           6.2320     0.5690     1.1400 o          1 NVH      -0.516500
     46 O5           4.1320     1.9490     1.6280 o          1 NVH      -0.516500
@<TRIPOS>BOND
     1     1    11 ar  
     2     1    15 ar  
     3     1    28 1   
     4     2     3 ar  
     5     2    18 ar  
     6     2    24 1   
     7     3    22 ar  
     8     3    29 1   
     9     4     5 ar  
    10     4     9 ar  
    11     4    44 1   
    12     5     6 ar  
    13     5    32 1   
    14     6     7 ar  
    15     6    19 1   
    16     7     8 ar  
    17     7    41 1   
    18     8     9 ar  
    19     8    20 1   
    20     9    33 1   
    21    10    27 1   
    22    10    34 1   
    23    10    35 1   
    24    10    36 1   
    25    11    12 ar  
    26    11    37 1   
    27    12    21 ar  
    28    12    38 1   
    29    13    15 ar  
    30    13    21 ar  
    31    13    23 1   
    32    14    23 1   
    33    14    24 1   
    34    14    25 2   
    35    15    26 1   
    36    16    17 ar  
    37    16    22 ar  
    38    16    39 1   
    39    17    18 ar  
    40    17    27 1   
    41    18    40 1   
    42    23    41 1   
    43    24    26 1   
    44    26    42 2   
    45    26    43 2   
    46    27    45 2   
    47    27    46 2   
    48    30    41 1   
    49    31    41 1   
@<TRIPOS>SUBSTRUCTURE
     1 NVH         1 TEMP              0 ****  ****    0 ROOT
