@<TRIPOS>MOLECULE
NVH
   46    49     1     0     0
SMALL
abcg2


@<TRIPOS>ATOM
      1 C1          -2.6100    -3.5770     0.9160 ca         1 NVH       0.064000
      2 C10          1.6820    -1.3450    -0.2830 ca         1 NVH      -0.146000
      3 C11          2.3550    -2.4160    -0.8550 ca         1 NVH       0.433900
      4 C13         -2.1240     4.1570     0.4220 ca         1 NVH       0.243000
      5 C14         -1.6340     4.1080    -0.8670 ca         1 NVH      -0.222500
      6 C15         -1.7820     2.9190    -1.5560 ca         1 NVH       0.255000
      7 C16         -2.3900     1.7940    -1.0200 ca         1 NVH      -0.234300
      8 C17         -2.8640     1.9300     0.2780 ca         1 NVH       0.255000
      9 C18         -2.7490     3.0830     1.0260 ca         1 NVH      -0.222500
     10 C19          4.9820     2.0450    -0.4470 c3         1 NVH      -0.338100
     11 C2          -3.8470    -3.8580     0.3650 ca         1 NVH      -0.207000
     12 C3          -4.3410    -2.9930    -0.6000 ca         1 NVH       0.437900
     13 C4          -2.4940    -1.6640    -0.5470 ca         1 NVH       0.588900
     14 C5          -0.4320    -0.4530    -1.0620 c          1 NVH       0.631000
     15 C6          -1.9430    -2.4530     0.4620 ca         1 NVH      -0.390500
     16 C7           4.3820    -1.5010    -0.3820 ca         1 NVH       0.447900
     17 C8           3.7860    -0.3920     0.2030 ca         1 NVH      -0.323500
     18 C9           2.4070    -0.3040     0.2680 ca         1 NVH       0.037000
     19 F2          -1.3210     2.8660    -2.8060 f          1 NVH      -0.159000
     20 F3          -3.4670     0.8740     0.8330 f          1 NVH      -0.159000
     21 N1          -3.6790    -1.9370    -1.0530 nb         1 NVH      -0.725000
     22 N2           3.6750    -2.4940    -0.9010 nb         1 NVH      -0.672000
     23 N3          -1.8010    -0.5720    -1.0670 n          1 NVH      -0.409300
     24 N4           0.2620    -1.3610    -0.2570 n          1 NVH      -0.292800
     25 O1           0.1520     0.3660    -1.7240 o          1 NVH      -0.507000
     26 S1          -0.4530    -1.9150     1.1770 sy         1 NVH       1.201300
     27 S2           4.7880     0.9020     0.8980 sy         1 NVH       1.068500
     28 H1          -2.1810    -4.2060     1.6850 ha         1 NVH       0.145000
     29 H2           1.7920    -3.2350    -1.2870 h4         1 NVH       0.038100
     30 H3          -3.5740     0.1890    -1.8100 h1         1 NVH       0.093200
     31 H4          -2.1800     0.5790    -2.7840 h1         1 NVH       0.093200
     32 H5          -1.1520     4.9630    -1.3220 ha         1 NVH       0.159000
     33 H6          -3.1320     3.1400     2.0360 ha         1 NVH       0.159000
     34 H7           4.0050     2.4060    -0.7600 h1         1 NVH       0.106367
     35 H8           5.5860     2.8750    -0.0810 h1         1 NVH       0.106367
     36 H9           5.4880     1.5500    -1.2720 h1         1 NVH       0.106367
     37 H10         -4.4190    -4.7170     0.6820 ha         1 NVH       0.140000
     38 H11         -5.3160    -3.1660    -1.0390 h4         1 NVH       0.031100
     39 H12          5.4610    -1.5930    -0.4320 h4         1 NVH       0.048100
     40 H13          1.9130     0.5410     0.7290 ha         1 NVH       0.158000
     41 C12         -2.5330     0.4950    -1.7600 c3         1 NVH       0.176300
     42 O2           0.3450    -3.0200     1.6540 o          1 NVH      -0.511000
     43 O3          -0.6960    -0.7760     2.0360 o          1 NVH      -0.511000
     44 F1          -1.9920     5.2900     1.1150 f          1 NVH      -0.160000
     45 O4           6.0900     0.3310     1.2220 o          1 NVH      -0.516500
     46 O5           4.0090     1.5440     1.9520 o          1 NVH      -0.516500
@<TRIPOS>BOND
     1     1    11 ar  
     2     1    15 ar  
     3     1    28 1   
     4     2     3 ar  
     5     2    18 ar  
     6     2    24 1   
     7     3    22 ar  
     8     3    29 1   
     9     4     5 ar  
    10     4     9 ar  
    11     4    44 1   
    12     5     6 ar  
    13     5    32 1   
    14     6     7 ar  
    15     6    19 1   
    16     7     8 ar  
    17     7    41 1   
    18     8     9 ar  
    19     8    20 1   
    20     9    33 1   
    21    10    27 1   
    22    10    34 1   
    23    10    35 1   
    24    10    36 1   
    25    11    12 ar  
    26    11    37 1   
    27    12    21 ar  
    28    12    38 1   
    29    13    15 ar  
    30    13    21 ar  
    31    13    23 1   
    32    14    23 1   
    33    14    24 1   
    34    14    25 2   
    35    15    26 1   
    36    16    17 ar  
    37    16    22 ar  
    38    16    39 1   
    39    17    18 ar  
    40    17    27 1   
    41    18    40 1   
    42    23    41 1   
    43    24    26 1   
    44    26    42 2   
    45    26    43 2   
    46    27    45 2   
    47    27    46 2   
    48    30    41 1   
    49    31    41 1   
@<TRIPOS>SUBSTRUCTURE
     1 NVH         1 TEMP              0 ****  ****    0 ROOT
