@<TRIPOS>MOLECULE
NVI
   14    14     1     0     0
SMALL
No Charge or Current Charge


@<TRIPOS>ATOM
      1 N1           0.2900    -0.2090     0.0030 na         1 NVI       0.102400
      2 C2          -0.7120    -1.1420     0.0220 cc         1 NVI      -0.057300
      3 N3          -1.9040    -0.4360     0.0310 na         1 NVI      -0.066000
      4 C4          -1.6130     0.9320     0.0150 cc         1 NVI      -0.142000
      5 C5          -0.2360     1.0670    -0.0020 cd         1 NVI      -0.153000
      6 C6           1.6800    -0.5110    -0.0110 c2         1 NVI      -0.185100
      7 C7           2.6930     0.3780    -0.0310 c2         1 NVI      -0.226000
      8 H2          -0.5950    -2.2210     0.0300 h5         1 NVI       0.234000
      9 HN3         -2.8350    -0.8470     0.0450 hn         1 NVI       0.415000
     10 H4          -2.3910     1.6900     0.0180 h4         1 NVI       0.215000
     11 H5           0.3720     1.9630    -0.0170 h4         1 NVI       0.212000
     12 H6           1.8620    -1.5880    -0.0040 h4         1 NVI       0.231000
     13 H71          3.7340     0.0480    -0.0400 ha         1 NVI       0.209500
     14 H72          2.5430     1.4570    -0.0390 ha         1 NVI       0.209500
@<TRIPOS>BOND
     1     1     2 2   
     2     1     5 1   
     3     1     6 1   
     4     2     3 1   
     5     2     8 1   
     6     3     4 1   
     7     3     9 1   
     8     4     5 2   
     9     4    10 1   
    10     5    11 1   
    11     6     7 2   
    12     6    12 1   
    13     7    13 1   
    14     7    14 1   
@<TRIPOS>SUBSTRUCTURE
     1 NVI         1 TEMP              0 ****  ****    0 ROOT
