@<TRIPOS>MOLECULE
NVI
   14    14     1     0     0
SMALL
bcc


@<TRIPOS>ATOM
      1 N1           0.2960    -0.1810     0.0110 na         1 NVI       0.051700
      2 C2          -0.6860    -1.0760     0.0140 cc         1 NVI      -0.024600
      3 N3          -1.8330    -0.4270     0.0210 na         1 NVI      -0.117100
      4 C4          -1.5980     0.9220     0.0200 cc         1 NVI      -0.109300
      5 C5          -0.2560     1.0820     0.0150 cd         1 NVI      -0.120300
      6 C6           1.6670    -0.5270     0.0030 c2         1 NVI      -0.135100
      7 C7           2.6510     0.3530    -0.0460 c2         1 NVI      -0.126000
      8 H2          -0.5640    -2.1460     0.0130 h5         1 NVI       0.252000
      9 HN3         -2.7410    -0.8700     0.0230 hn         1 NVI       0.364700
     10 H4          -2.3920     1.6470     0.0240 h4         1 NVI       0.233000
     11 H5           0.3370     1.9790     0.0150 h4         1 NVI       0.230000
     12 H6           1.8340    -1.5940     0.0410 h4         1 NVI       0.181000
     13 H71          3.6690    -0.0050    -0.0450 ha         1 NVI       0.159500
     14 H72          2.5040     1.4230    -0.0880 ha         1 NVI       0.159500
@<TRIPOS>BOND
     1     1     2 2   
     2     1     5 1   
     3     1     6 1   
     4     2     3 1   
     5     2     8 1   
     6     3     4 1   
     7     3     9 1   
     8     4     5 2   
     9     4    10 1   
    10     5    11 1   
    11     6     7 2   
    12     6    12 1   
    13     7    13 1   
    14     7    14 1   
@<TRIPOS>SUBSTRUCTURE
     1 NVI         1 TEMP              0 ****  ****    0 ROOT
