@<TRIPOS>MOLECULE
NVJ
   26    26     1     0     0
SMALL
abcg2


@<TRIPOS>ATOM
      1 N1          -0.7200    -0.2600    -0.9960 ns         1 NVJ      -0.501900
      2 C4           0.4930    -1.0260    -1.1160 c3         1 NVJ       0.162300
      3 C5           1.7050    -0.3680    -0.4990 ca         1 NVJ      -0.114300
      4 C6           1.6260     0.3160     0.7120 ca         1 NVJ      -0.097500
      5 C7           2.7590     0.8850     1.2760 ca         1 NVJ      -0.110500
      6 C8           3.9900     0.7770     0.6400 ca         1 NVJ      -0.107000
      7 C10          2.9410    -0.4690    -1.1310 ca         1 NVJ      -0.097500
      8 C1          -4.7850     1.2780     0.4110 c3         1 NVJ      -0.100100
      9 C2          -3.7890     0.1830     0.7070 c3         1 NVJ       0.185600
     10 C3          -1.6840    -0.5360    -0.0970 c          1 NVJ       0.640100
     11 C9           4.0780     0.0960    -0.5660 ca         1 NVJ      -0.110500
     12 O1          -2.6880     0.3390    -0.1950 os         1 NVJ      -0.468100
     13 O2          -1.6610    -1.4560     0.6960 o          1 NVJ      -0.544000
     14 H1          -0.8190     0.5580    -1.5750 hn         1 NVJ       0.327500
     15 H2           0.3300    -2.0020    -0.6570 h1         1 NVJ       0.065700
     16 H3           0.6840    -1.2150    -2.1740 h1         1 NVJ       0.065700
     17 H4           0.6760     0.4110     1.2240 ha         1 NVJ       0.114500
     18 H5           2.6800     1.4170     2.2160 ha         1 NVJ       0.112500
     19 H6           4.8720     1.2240     1.0800 ha         1 NVJ       0.113000
     20 H7           3.0170    -0.9920    -2.0770 ha         1 NVJ       0.114500
     21 H8          -5.6310     1.1840     1.0910 hc         1 NVJ       0.046700
     22 H9          -4.3490     2.2670     0.5530 hc         1 NVJ       0.046700
     23 H10         -5.1680     1.2090    -0.6080 hc         1 NVJ       0.046700
     24 H11         -3.4380     0.2510     1.7390 h1         1 NVJ       0.048700
     25 H12         -4.2450    -0.8000     0.5720 h1         1 NVJ       0.048700
     26 H13          5.0300     0.0080    -1.0730 ha         1 NVJ       0.112500
@<TRIPOS>BOND
     1     1     2 1   
     2     1    10 1   
     3     1    14 1   
     4     2     3 1   
     5     2    15 1   
     6     2    16 1   
     7     3     4 ar  
     8     3     7 ar  
     9     4     5 ar  
    10     4    17 1   
    11     5     6 ar  
    12     5    18 1   
    13     6    11 ar  
    14     6    19 1   
    15     7    11 ar  
    16     7    20 1   
    17     8     9 1   
    18     8    21 1   
    19     8    22 1   
    20     8    23 1   
    21     9    12 1   
    22     9    24 1   
    23     9    25 1   
    24    10    12 1   
    25    10    13 2   
    26    11    26 1   
@<TRIPOS>SUBSTRUCTURE
     1 NVJ         1 TEMP              0 ****  ****    0 ROOT
