@<TRIPOS>MOLECULE
NVJ
   26    26     1     0     0
SMALL
No Charge or Current Charge


@<TRIPOS>ATOM
      1 N1          -0.6370    -0.3440    -0.0110 ns         1 NVJ      -0.501900
      2 C4           0.5000    -1.2570    -0.0300 c3         1 NVJ       0.162300
      3 C5           1.8150    -0.4930     0.0020 ca         1 NVJ      -0.114300
      4 C6           2.4190    -0.1690     1.2330 ca         1 NVJ      -0.097500
      5 C7           3.6330     0.5400     1.2620 ca         1 NVJ      -0.110500
      6 C8           4.2490     0.9290     0.0610 ca         1 NVJ      -0.107000
      7 C10          2.4360    -0.0980    -1.1990 ca         1 NVJ      -0.097500
      8 C1          -4.8230     1.5490     0.0140 c3         1 NVJ      -0.100100
      9 C2          -4.1590     0.1630    -0.0220 c3         1 NVJ       0.185600
     10 C3          -1.9410    -0.7380    -0.0320 c          1 NVJ       0.640100
     11 C9           3.6500     0.6110    -1.1700 ca         1 NVJ      -0.110500
     12 O1          -2.7360     0.3660    -0.0060 os         1 NVJ      -0.468100
     13 O2          -2.3220    -1.8970    -0.0690 o          1 NVJ      -0.544000
     14 H1          -0.4680     0.6530     0.0200 hn         1 NVJ       0.327500
     15 H2           0.4350    -1.9260     0.8390 h1         1 NVJ       0.065700
     16 H3           0.4480    -1.8740    -0.9360 h1         1 NVJ       0.065700
     17 H4           1.9470    -0.4650     2.1680 ha         1 NVJ       0.114500
     18 H5           4.0950     0.7870     2.2150 ha         1 NVJ       0.112500
     19 H6           5.1880     1.4780     0.0840 ha         1 NVJ       0.113000
     20 H7           1.9780    -0.3390    -2.1560 ha         1 NVJ       0.114500
     21 H8          -5.9140     1.4460     0.0030 hc         1 NVJ       0.046700
     22 H9          -4.5380     2.0910     0.9230 hc         1 NVJ       0.046700
     23 H10         -4.5240     2.1430    -0.8580 hc         1 NVJ       0.046700
     24 H11         -4.4820    -0.4210     0.8500 h1         1 NVJ       0.048700
     25 H12         -4.4690    -0.3680    -0.9320 h1         1 NVJ       0.048700
     26 H13          4.1250     0.9130    -2.1000 ha         1 NVJ       0.112500
@<TRIPOS>BOND
     1     1     2 1   
     2     1    10 1   
     3     1    14 1   
     4     2     3 1   
     5     2    15 1   
     6     2    16 1   
     7     3     4 ar  
     8     3     7 ar  
     9     4     5 ar  
    10     4    17 1   
    11     5     6 ar  
    12     5    18 1   
    13     6    11 ar  
    14     6    19 1   
    15     7    11 ar  
    16     7    20 1   
    17     8     9 1   
    18     8    21 1   
    19     8    22 1   
    20     8    23 1   
    21     9    12 1   
    22     9    24 1   
    23     9    25 1   
    24    10    12 1   
    25    10    13 2   
    26    11    26 1   
@<TRIPOS>SUBSTRUCTURE
     1 NVJ         1 TEMP              0 ****  ****    0 ROOT
