@<TRIPOS>MOLECULE
NVK
   37    40     1     0     0
SMALL
No Charge or Current Charge


@<TRIPOS>ATOM
      1 C1           7.7440    -1.4860    -0.0510 c3         1 NVK      -0.107400
      2 C10         -2.9680     0.6680     0.0770 ca         1 NVK       0.057000
      3 C11         -3.9750    -0.3180    -0.0810 ca         1 NVK       0.179000
      4 C12         -5.3400     0.1160    -0.0430 ca         1 NVK       0.251000
      5 C13         -4.7260     2.3330     0.2850 ca         1 NVK       0.383900
      6 C14         -3.3650     2.0100     0.2620 ca         1 NVK      -0.212000
      7 C15         -6.3390    -0.8630    -0.2000 ca         1 NVK      -0.046000
      8 C16         -5.9710    -2.2070    -0.3850 ca         1 NVK      -0.157000
      9 C17         -4.6110    -2.5450    -0.4100 ca         1 NVK       0.351900
     10 C2           6.4230    -0.7860     0.0270 cc         1 NVK       0.536600
     11 C3           4.8720     0.6250     0.2020 ca         1 NVK       0.040400
     12 C4           4.3130    -0.6040     0.0180 ca         1 NVK       0.051100
     13 C5           2.9300    -0.8020    -0.0330 ca         1 NVK      -0.147000
     14 C6           2.0840     0.3210     0.1130 ca         1 NVK       0.002000
     15 C7           2.6660     1.6050     0.3060 ca         1 NVK      -0.127000
     16 C8           4.0700     1.7630     0.3510 ca         1 NVK      -0.026000
     17 C9          -0.4120     0.9420     0.1590 c          1 NVK       0.668100
     18 N1           6.2470     0.5350     0.2120 nd         1 NVK      -0.565100
     19 N2           0.6800     0.0910     0.0560 ns         1 NVK      -0.165000
     20 N3          -1.6060     0.2530     0.0410 ns         1 NVK      -0.150000
     21 N4          -5.7000     1.4110     0.1360 nb         1 NVK      -0.676000
     22 N5          -3.6280    -1.6270    -0.2620 nb         1 NVK      -0.689000
     23 O1           5.2720    -1.5530    -0.1010 os         1 NVK      -0.286700
     24 O2          -0.3300     2.1520     0.3330 o          1 NVK      -0.595100
     25 H3           7.8560    -1.9860    -1.0190 hc         1 NVK       0.068367
     26 H1           8.5720    -0.7770     0.0660 hc         1 NVK       0.068367
     27 H2           7.8250    -2.2410     0.7380 hc         1 NVK       0.068367
     28 H9          -5.0500     3.3640     0.4270 h4         1 NVK       0.023100
     29 H10         -2.6500     2.8140     0.3890 ha         1 NVK       0.160000
     30 H11         -7.3870    -0.5800    -0.1770 ha         1 NVK       0.139000
     31 H12         -6.7250    -2.9780    -0.5080 ha         1 NVK       0.129000
     32 H13         -4.2960    -3.5780    -0.5520 h4         1 NVK       0.021100
     33 H4           2.5240    -1.7990    -0.1820 ha         1 NVK       0.133000
     34 H5           2.0530     2.4930     0.4220 ha         1 NVK       0.143000
     35 H6           4.5180     2.7430     0.4980 ha         1 NVK       0.138000
     36 H7           0.4360    -0.8800    -0.0860 hn         1 NVK       0.155000
     37 H8          -1.5030    -0.7440    -0.0990 hn         1 NVK       0.184000
@<TRIPOS>BOND
     1     1    10 1   
     2     1    25 1   
     3     1    26 1   
     4     1    27 1   
     5     2     3 ar  
     6     2     6 ar  
     7     2    20 1   
     8     3     4 ar  
     9     3    22 ar  
    10     4     7 ar  
    11     4    21 ar  
    12     5     6 ar  
    13     5    21 ar  
    14     5    28 1   
    15     6    29 1   
    16     7     8 ar  
    17     7    30 1   
    18     8     9 ar  
    19     8    31 1   
    20     9    22 ar  
    21     9    32 1   
    22    10    18 2   
    23    10    23 1   
    24    11    12 ar  
    25    11    16 ar  
    26    11    18 1   
    27    12    13 ar  
    28    12    23 1   
    29    13    14 ar  
    30    13    33 1   
    31    14    15 ar  
    32    14    19 1   
    33    15    16 ar  
    34    15    34 1   
    35    16    35 1   
    36    17    19 1   
    37    17    20 1   
    38    17    24 2   
    39    19    36 1   
    40    20    37 1   
@<TRIPOS>SUBSTRUCTURE
     1 NVK         1 TEMP              0 ****  ****    0 ROOT
