@<TRIPOS>MOLECULE
NVK
   37    40     1     0     0
SMALL
abcg2


@<TRIPOS>ATOM
      1 C1           7.7040    -1.0360    -0.6050 c3         1 NVK      -0.107400
      2 C10         -2.8060     0.6060    -0.0810 ca         1 NVK       0.057000
      3 C11         -3.9300    -0.2820    -0.0740 ca         1 NVK       0.179000
      4 C12         -5.2170     0.2520    -0.2890 ca         1 NVK       0.251000
      5 C13         -4.3960     2.3490    -0.5010 ca         1 NVK       0.383900
      6 C14         -3.0650     1.9410    -0.3000 ca         1 NVK      -0.212000
      7 C15         -6.2980    -0.6560    -0.2740 ca         1 NVK      -0.046000
      8 C16         -6.0550    -1.9830    -0.0570 ca         1 NVK      -0.157000
      9 C17         -4.7280    -2.4080     0.1460 ca         1 NVK       0.351900
     10 C2           6.3810    -0.5150    -0.2030 cc         1 NVK       0.536600
     11 C3           4.7310     0.5780     0.5460 ca         1 NVK       0.040400
     12 C4           4.2350    -0.5670    -0.0610 ca         1 NVK       0.051100
     13 C5           2.8950    -0.8760    -0.1500 ca         1 NVK      -0.147000
     14 C6           2.0170     0.0330     0.4380 ca         1 NVK       0.002000
     15 C7           2.4960     1.1880     1.0800 ca         1 NVK      -0.127000
     16 C8           3.8500     1.4760     1.1310 ca         1 NVK      -0.026000
     17 C9          -0.3550     0.6160     0.1830 c          1 NVK       0.668100
     18 N1           6.1120     0.5690     0.4320 nd         1 NVK      -0.565100
     19 N2           0.6500    -0.2800     0.4090 ns         1 NVK      -0.165000
     20 N3          -1.5900     0.0120     0.1340 ns         1 NVK      -0.150000
     21 N4          -5.4440     1.5680    -0.5020 nb         1 NVK      -0.676000
     22 N5          -3.7060    -1.5920     0.1380 nb         1 NVK      -0.689000
     23 O1           5.2950    -1.2610    -0.5370 os         1 NVK      -0.286700
     24 O2          -0.1840     1.8110     0.0460 o          1 NVK      -0.595100
     25 H3           7.7610    -1.1610    -1.6870 hc         1 NVK       0.068367
     26 H1           8.4790    -0.3430    -0.2920 hc         1 NVK       0.068367
     27 H2           7.8960    -2.0070    -0.1480 hc         1 NVK       0.068367
     28 H9          -4.5810     3.4050    -0.6710 h4         1 NVK       0.023100
     29 H10         -2.2860     2.6830    -0.3220 ha         1 NVK       0.160000
     30 H11         -7.3010    -0.2810    -0.4360 ha         1 NVK       0.139000
     31 H12         -6.8580    -2.7070    -0.0380 ha         1 NVK       0.129000
     32 H13         -4.5170    -3.4580     0.3180 h4         1 NVK       0.021100
     33 H4           2.5400    -1.7700    -0.6470 ha         1 NVK       0.133000
     34 H5           1.8030     1.8620     1.5590 ha         1 NVK       0.143000
     35 H6           4.2030     2.3710     1.6250 ha         1 NVK       0.138000
     36 H7           0.4310    -1.2630     0.3470 hn         1 NVK       0.155000
     37 H8          -1.6590    -0.9900     0.2730 hn         1 NVK       0.184000
@<TRIPOS>BOND
     1     1    10 1   
     2     1    25 1   
     3     1    26 1   
     4     1    27 1   
     5     2     3 ar  
     6     2     6 ar  
     7     2    20 1   
     8     3     4 ar  
     9     3    22 ar  
    10     4     7 ar  
    11     4    21 ar  
    12     5     6 ar  
    13     5    21 ar  
    14     5    28 1   
    15     6    29 1   
    16     7     8 ar  
    17     7    30 1   
    18     8     9 ar  
    19     8    31 1   
    20     9    22 ar  
    21     9    32 1   
    22    10    18 2   
    23    10    23 1   
    24    11    12 ar  
    25    11    16 ar  
    26    11    18 1   
    27    12    13 ar  
    28    12    23 1   
    29    13    14 ar  
    30    13    33 1   
    31    14    15 ar  
    32    14    19 1   
    33    15    16 ar  
    34    15    34 1   
    35    16    35 1   
    36    17    19 1   
    37    17    20 1   
    38    17    24 2   
    39    19    36 1   
    40    20    37 1   
@<TRIPOS>SUBSTRUCTURE
     1 NVK         1 TEMP              0 ****  ****    0 ROOT
