@<TRIPOS>MOLECULE
NVM
   29    30     1     0     0
SMALL
No Charge or Current Charge


@<TRIPOS>ATOM
      1 N1          -0.6980     0.5370    -0.7270 n          1 NVM      -0.329000
      2 C4          -1.5280    -1.7430    -0.6930 c2         1 NVM      -0.239200
      3 C5          -0.7120    -0.7960    -1.1790 c2         1 NVM      -0.070400
      4 C6          -1.9630     1.3070    -0.8050 c3         1 NVM       0.104000
      5 C7          -2.9640     0.9710     0.3200 c3         1 NVM      -0.097400
      6 C8           0.4840     1.1830    -0.2320 c          1 NVM       0.542600
      7 C10          2.9050     1.0340     0.3650 cc         1 NVM      -0.215000
      8 C11          3.3000    -1.2800    -0.1610 cc         1 NVM       0.404300
      9 C2          -3.5650    -0.4610     0.2550 c3         1 NVM      -0.055700
     10 C3          -2.5090    -1.5820     0.4540 c3         1 NVM      -0.038200
     11 C9           1.7810     0.3800    -0.1130 cd         1 NVM       0.226500
     12 N2           2.0350    -0.9680    -0.4120 nd         1 NVM      -0.619000
     13 O1           0.4420     2.3680     0.1010 o          1 NVM      -0.599100
     14 S1           4.3010    -0.0000     0.4530 ss         1 NVM      -0.010400
     15 H1          -1.4870    -2.7510    -1.1100 ha         1 NVM       0.179000
     16 H2          -0.0080    -0.9940    -1.9920 h4         1 NVM       0.208000
     17 H3          -1.7640     2.3850    -0.7930 h1         1 NVM       0.059200
     18 H4          -2.4380     1.0930    -1.7720 h1         1 NVM       0.059200
     19 H5          -2.4790     1.1280     1.2910 hc         1 NVM       0.051700
     20 H6          -3.7830     1.6980     0.2600 hc         1 NVM       0.051700
     21 H12          3.7320    -2.2610    -0.3120 h5         1 NVM       0.055100
     22 H14         -4.0080    -0.5950    -0.7400 hc         1 NVM       0.046700
     23 H15         -3.0330    -2.5350     0.5970 hc         1 NVM       0.047200
     24 H16         -1.9620    -1.4010     1.3880 hc         1 NVM       0.047200
     25 C1          -4.7150    -0.6080     1.2800 c3         1 NVM      -0.089100
     26 H7           2.9960     2.0670     0.6730 h4         1 NVM       0.177000
     27 H9          -5.4890     0.1500     1.1090 hc         1 NVM       0.034033
     28 H10         -5.1890    -1.5940     1.1960 hc         1 NVM       0.034033
     29 H11         -4.3420    -0.4930     2.3050 hc         1 NVM       0.034033
@<TRIPOS>BOND
     1     1     3 1   
     2     1     4 1   
     3     1     6 1   
     4     2     3 2   
     5     2    10 1   
     6     2    15 1   
     7     3    16 1   
     8     4     5 1   
     9     4    17 1   
    10     4    18 1   
    11     5     9 1   
    12     5    19 1   
    13     5    20 1   
    14     6    11 1   
    15     6    13 2   
    16     7    11 2   
    17     7    14 1   
    18     7    26 1   
    19     8    12 2   
    20     8    14 1   
    21     8    21 1   
    22     9    10 1   
    23     9    22 1   
    24     9    25 1   
    25    10    23 1   
    26    10    24 1   
    27    11    12 1   
    28    25    27 1   
    29    25    28 1   
    30    25    29 1   
@<TRIPOS>SUBSTRUCTURE
     1 NVM         1 TEMP              0 ****  ****    0 ROOT
