@<TRIPOS>MOLECULE
NVM
   29    30     1     0     0
SMALL
abcg2


@<TRIPOS>ATOM
      1 N1          -0.6710     0.4560    -0.8640 n          1 NVM      -0.329000
      2 C4          -1.4710    -1.7800    -0.5510 c2         1 NVM      -0.239200
      3 C5          -0.6730    -0.9300    -1.1850 c2         1 NVM      -0.070400
      4 C6          -1.9330     1.1640    -1.0570 c3         1 NVM       0.104000
      5 C7          -2.9290     0.9940     0.0830 c3         1 NVM      -0.097400
      6 C8           0.3400     1.0840    -0.2230 c          1 NVM       0.542600
      7 C10          2.4490     0.5720     1.0030 cc         1 NVM      -0.215000
      8 C11          3.2950    -0.9350    -0.6720 cc         1 NVM       0.404300
      9 C2          -3.4700    -0.4210     0.2840 c3         1 NVM      -0.055700
     10 C3          -2.3630    -1.4360     0.6060 c3         1 NVM      -0.038200
     11 C9           1.6370     0.3640    -0.0720 cd         1 NVM       0.226500
     12 N2           2.1320    -0.4890    -1.0140 nd         1 NVM      -0.619000
     13 O1           0.2300     2.2090     0.2430 o          1 NVM      -0.599100
     14 S1           3.8720    -0.3490     0.8380 ss         1 NVM      -0.010400
     15 H1          -1.4750    -2.8040    -0.9060 ha         1 NVM       0.179000
     16 H2          -0.0500    -1.2460    -2.0100 h4         1 NVM       0.208000
     17 H3          -1.7160     2.2220    -1.1950 h1         1 NVM       0.059200
     18 H4          -2.3640     0.8030    -1.9920 h1         1 NVM       0.059200
     19 H5          -2.4720     1.3440     1.0150 hc         1 NVM       0.051700
     20 H6          -3.7670     1.6670    -0.1200 hc         1 NVM       0.051700
     21 H12          3.8820    -1.6190    -1.2680 h5         1 NVM       0.055100
     22 H14         -3.9580    -0.7370    -0.6450 hc         1 NVM       0.046700
     23 H15         -2.8230    -2.3560     0.9720 hc         1 NVM       0.047200
     24 H16         -1.7620    -1.0470     1.4360 hc         1 NVM       0.047200
     25 C1          -4.5160    -0.4230     1.3940 c3         1 NVM      -0.089100
     26 H7           2.2750     1.2020     1.8610 h4         1 NVM       0.177000
     27 H9          -5.3210     0.2830     1.1800 hc         1 NVM       0.034033
     28 H10         -4.9650    -1.4110     1.5130 hc         1 NVM       0.034033
     29 H11         -4.0750    -0.1410     2.3530 hc         1 NVM       0.034033
@<TRIPOS>BOND
     1     1     3 1   
     2     1     4 1   
     3     1     6 1   
     4     2     3 2   
     5     2    10 1   
     6     2    15 1   
     7     3    16 1   
     8     4     5 1   
     9     4    17 1   
    10     4    18 1   
    11     5     9 1   
    12     5    19 1   
    13     5    20 1   
    14     6    11 1   
    15     6    13 2   
    16     7    11 2   
    17     7    14 1   
    18     7    26 1   
    19     8    12 2   
    20     8    14 1   
    21     8    21 1   
    22     9    10 1   
    23     9    22 1   
    24     9    25 1   
    25    10    23 1   
    26    10    24 1   
    27    11    12 1   
    28    25    27 1   
    29    25    28 1   
    30    25    29 1   
@<TRIPOS>SUBSTRUCTURE
     1 NVM         1 TEMP              0 ****  ****    0 ROOT
