@<TRIPOS>MOLECULE
NVN
   44    46     1     0     0
SMALL
No Charge or Current Charge


@<TRIPOS>ATOM
      1 C1           3.6470     4.1130    -0.0470 c3         1 NVN      -0.150400
      2 C10          2.1070     2.0980    -0.0000 ca         1 NVN      -0.188000
      3 C11         -0.6580     0.6570    -0.0900 c          1 NVN       0.664100
      4 C12         -3.0660    -0.2320     0.1370 ca         1 NVN      -0.096000
      5 C13         -3.7950     0.9500    -0.1180 ca         1 NVN      -0.066000
      6 C14         -5.2010     0.9300    -0.1200 ca         1 NVN      -0.180000
      7 C15         -5.9120    -0.2590     0.1330 ca         1 NVN       0.335000
      8 C16         -5.1790    -1.4340     0.3900 ca         1 NVN      -0.180000
      9 C17         -3.7730    -1.4210     0.3910 ca         1 NVN      -0.066000
     10 C18         -8.0970    -1.2530     0.9380 c3         1 NVN       0.215100
     11 C19         -8.1140     0.6900    -0.6790 c3         1 NVN       0.215100
     12 C2           3.4030     2.6170    -0.0900 ca         1 NVN       0.394300
     13 C3           4.3430     0.4870    -0.2560 ca         1 NVN       0.241000
     14 C4           5.4780    -0.3600    -0.3850 ca         1 NVN       0.232000
     15 C5           5.3490    -1.7560    -0.4270 ca         1 NVN      -0.199000
     16 C6           4.0810    -2.3350    -0.3440 ca         1 NVN       0.196000
     17 C7           2.9410    -1.5320    -0.2170 ca         1 NVN      -0.166000
     18 C8           3.0550    -0.1190    -0.1700 ca         1 NVN      -0.075000
     19 C9           1.9080     0.7050    -0.0460 ca         1 NVN       0.038000
     20 F1           3.9550    -3.6790    -0.3870 f          1 NVN      -0.173000
     21 F2           6.7220     0.1710    -0.4700 f          1 NVN      -0.147000
     22 N1           4.4930     1.8370    -0.2180 nb         1 NVN      -0.666000
     23 N2           0.6130     0.1220     0.0560 ns         1 NVN      -0.170000
     24 N3          -1.6420    -0.2930     0.1560 ns         1 NVN      -0.168000
     25 N4          -7.3310    -0.2730     0.1310 nh         1 NVN      -0.823400
     26 O1          -0.8820     1.8180    -0.4110 o          1 NVN      -0.597100
     27 H3           2.9840     4.5980     0.6780 hc         1 NVN       0.057033
     28 H1           4.6790     4.3490     0.2390 hc         1 NVN       0.057033
     29 H2           3.4590     4.5630    -1.0290 hc         1 NVN       0.057033
     30 H6           1.2820     2.7900     0.1170 ha         1 NVN       0.156000
     31 H9          -3.2960     1.8940    -0.3130 ha         1 NVN       0.116000
     32 H10         -5.7350     1.8560    -0.3080 ha         1 NVN       0.115000
     33 H11         -5.6930    -2.3710     0.5780 ha         1 NVN       0.115000
     34 H12         -3.2330    -2.3440     0.5900 ha         1 NVN       0.116000
     35 H13         -7.5900    -1.4470     1.8930 h1         1 NVN       0.036200
     36 H14         -9.1010    -0.8690     1.1690 h1         1 NVN       0.036200
     37 H15         -8.2040    -2.2010     0.3940 h1         1 NVN       0.036200
     38 H16         -7.6070     0.8950    -1.6320 h1         1 NVN       0.036200
     39 H17         -9.1080     0.2870    -0.9140 h1         1 NVN       0.036200
     40 H18         -8.2420     1.6360    -0.1350 h1         1 NVN       0.036200
     41 H4           6.2300    -2.3820    -0.5260 ha         1 NVN       0.153000
     42 H5           1.9760    -2.0270    -0.1600 ha         1 NVN       0.124000
     43 H7           0.6250    -0.8610     0.2910 hn         1 NVN       0.151000
     44 H8          -1.2800    -1.2060     0.3990 hn         1 NVN       0.148000
@<TRIPOS>BOND
     1     1    12 1   
     2     1    27 1   
     3     1    28 1   
     4     1    29 1   
     5     2    12 ar  
     6     2    19 ar  
     7     2    30 1   
     8     3    23 1   
     9     3    24 1   
    10     3    26 2   
    11     4     5 ar  
    12     4     9 ar  
    13     4    24 1   
    14     5     6 ar  
    15     5    31 1   
    16     6     7 ar  
    17     6    32 1   
    18     7     8 ar  
    19     7    25 1   
    20     8     9 ar  
    21     8    33 1   
    22     9    34 1   
    23    10    25 1   
    24    10    35 1   
    25    10    36 1   
    26    10    37 1   
    27    11    25 1   
    28    11    38 1   
    29    11    39 1   
    30    11    40 1   
    31    12    22 ar  
    32    13    14 ar  
    33    13    18 ar  
    34    13    22 ar  
    35    14    15 ar  
    36    14    21 1   
    37    15    16 ar  
    38    15    41 1   
    39    16    17 ar  
    40    16    20 1   
    41    17    18 ar  
    42    17    42 1   
    43    18    19 ar  
    44    19    23 1   
    45    23    43 1   
    46    24    44 1   
@<TRIPOS>SUBSTRUCTURE
     1 NVN         1 TEMP              0 ****  ****    0 ROOT
