@<TRIPOS>MOLECULE
NVN
   44    46     1     0     0
SMALL
bcc


@<TRIPOS>ATOM
      1 C1           3.1420     4.0280     0.1490 c3         1 NVN      -0.150400
      2 C10          1.8440     1.9070    -0.1420 ca         1 NVN      -0.271300
      3 C11         -0.6910     0.2710    -0.1770 c          1 NVN       0.798100
      4 C12         -3.0150    -0.4410    -0.3000 ca         1 NVN      -0.003400
      5 C13         -3.7080     0.6580    -0.7930 ca         1 NVN      -0.084000
      6 C14         -5.0620     0.8130    -0.5550 ca         1 NVN      -0.198000
      7 C15         -5.7910    -0.1400     0.1830 ca         1 NVN       0.196600
      8 C16         -5.0810    -1.2610     0.6500 ca         1 NVN      -0.198000
      9 C17         -3.7220    -1.3930     0.4240 ca         1 NVN      -0.084000
     10 C18         -7.8710    -1.0530     1.0470 c3         1 NVN       0.215100
     11 C19         -7.8550     1.0690    -0.2440 c3         1 NVN       0.215100
     12 C2           3.0970     2.5360     0.0310 ca         1 NVN       0.459600
     13 C3           4.1760     0.5360    -0.0430 ca         1 NVN       0.371600
     14 C4           5.3930    -0.1830     0.0090 ca         1 NVN       0.131600
     15 C5           5.4570    -1.5410    -0.0730 ca         1 NVN      -0.217000
     16 C6           4.2500    -2.2360    -0.2080 ca         1 NVN       0.160900
     17 C7           3.0370    -1.6180    -0.2690 ca         1 NVN      -0.184000
     18 C8           2.9850    -0.2080    -0.2000 ca         1 NVN      -0.140300
     19 C9           1.7660     0.5430    -0.2680 ca         1 NVN       0.130600
     20 F1           4.3130    -3.5710    -0.2700 f          1 NVN      -0.137900
     21 F2           6.5170     0.5160     0.1490 f          1 NVN      -0.111900
     22 N1           4.2270     1.8790     0.0730 nb         1 NVN      -0.666000
     23 N2           0.5910    -0.1490    -0.4800 ns         1 NVN      -0.496100
     24 N3          -1.6390    -0.6240    -0.5580 ns         1 NVN      -0.494100
     25 N4          -7.1280     0.0210     0.4320 nh         1 NVN      -0.685000
     26 O1          -0.9400     1.3280     0.3710 o          1 NVN      -0.597100
     27 H3           2.4720     4.3780     0.9360 hc         1 NVN       0.057033
     28 H1           4.1500     4.3690     0.3710 hc         1 NVN       0.057033
     29 H2           2.8150     4.4990    -0.7800 hc         1 NVN       0.057033
     30 H6           0.9620     2.5240    -0.1930 ha         1 NVN       0.174000
     31 H9          -3.1940     1.4030    -1.3850 ha         1 NVN       0.134000
     32 H10         -5.5510     1.6860    -0.9630 ha         1 NVN       0.133000
     33 H11         -5.5820    -2.0420     1.2040 ha         1 NVN       0.133000
     34 H12         -3.2070    -2.2620     0.8150 ha         1 NVN       0.134000
     35 H13         -7.4580    -1.3160     2.0230 h1         1 NVN       0.036200
     36 H14         -8.8970    -0.7330     1.2090 h1         1 NVN       0.036200
     37 H15         -7.8940    -1.9630     0.4370 h1         1 NVN       0.036200
     38 H16         -7.8290     0.9710    -1.3350 h1         1 NVN       0.036200
     39 H17         -8.8960     1.0410     0.0670 h1         1 NVN       0.036200
     40 H18         -7.4680     2.0580     0.0110 h1         1 NVN       0.036200
     41 H4           6.4020    -2.0660    -0.0270 ha         1 NVN       0.171000
     42 H5           2.1490    -2.2300    -0.3500 ha         1 NVN       0.142000
     43 H7           0.6790    -1.0640    -0.8920 hn         1 NVN       0.317500
     44 H8          -1.3530    -1.5300    -0.8980 hn         1 NVN       0.314500
@<TRIPOS>BOND
     1     1    12 1   
     2     1    27 1   
     3     1    28 1   
     4     1    29 1   
     5     2    12 ar  
     6     2    19 ar  
     7     2    30 1   
     8     3    23 1   
     9     3    24 1   
    10     3    26 2   
    11     4     5 ar  
    12     4     9 ar  
    13     4    24 1   
    14     5     6 ar  
    15     5    31 1   
    16     6     7 ar  
    17     6    32 1   
    18     7     8 ar  
    19     7    25 1   
    20     8     9 ar  
    21     8    33 1   
    22     9    34 1   
    23    10    25 1   
    24    10    35 1   
    25    10    36 1   
    26    10    37 1   
    27    11    25 1   
    28    11    38 1   
    29    11    39 1   
    30    11    40 1   
    31    12    22 ar  
    32    13    14 ar  
    33    13    18 ar  
    34    13    22 ar  
    35    14    15 ar  
    36    14    21 1   
    37    15    16 ar  
    38    15    41 1   
    39    16    17 ar  
    40    16    20 1   
    41    17    18 ar  
    42    17    42 1   
    43    18    19 ar  
    44    19    23 1   
    45    23    43 1   
    46    24    44 1   
@<TRIPOS>SUBSTRUCTURE
     1 NVN         1 TEMP              0 ****  ****    0 ROOT
