@<TRIPOS>MOLECULE
NVO
   33    35     1     0     0
SMALL
abcg2


@<TRIPOS>ATOM
      1 N1           6.4940    -0.8900    18.4090 nb         1 NVO      -0.385000
      2 C4          10.3950    -0.8920    22.6170 ca         1 NVO      -0.066300
      3 C5           9.0960    -1.4650    22.1240 c3         1 NVO      -0.107100
      4 C6           8.2790    -0.4810    21.2960 c          1 NVO       0.600100
      5 C7           6.4580    -0.4240    19.6330 ca         1 NVO       0.444900
      6 C8           4.9210     0.6490    17.7370 ca         1 NVO       0.293900
      7 C10          3.8900     2.2350    19.3450 ca         1 NVO      -0.091000
      8 C13          5.4150     1.0500    21.3890 ca         1 NVO      -0.058000
      9 C15         11.5180    -0.9040    21.7890 ca         1 NVO      -0.088000
     10 O            8.4380     0.7270    21.3310 o          1 NVO      -0.553100
     11 C3          10.4950    -0.3350    23.8900 ca         1 NVO      -0.090000
     12 C2          11.6970     0.2060    24.3320 ca         1 NVO      -0.100000
     13 C1          12.8200     0.1990    23.5120 ca         1 NVO      -0.094000
     14 C           12.7090    -0.3610    22.2460 ca         1 NVO       0.126000
     15 CL          14.1150    -0.3870    21.1980 cl         1 NVO      -0.211000
     16 N            7.3090    -1.0870    20.5370 ns         1 NVO      -0.338900
     17 C14          5.5810     0.6170    20.0580 ca         1 NVO      -0.052000
     18 C9           4.7930     1.1970    19.0380 ca         1 NVO      -0.062000
     19 N2           5.7020    -0.3560    17.4430 nb         1 NVO      -0.301000
     20 C12          4.5190     2.0530    21.6700 ca         1 NVO      -0.100000
     21 C11          3.7630     2.6590    20.6450 ca         1 NVO      -0.088000
     22 H1           8.4650    -1.7540    22.9690 hc         1 NVO       0.070200
     23 H2           9.2700    -2.3690    21.5380 hc         1 NVO       0.070200
     24 H3           4.3320     1.0540    16.9210 h4         1 NVO       0.029100
     25 H4           3.3000     2.6750    18.5510 ha         1 NVO       0.123000
     26 H5           5.9870     0.5950    22.1830 ha         1 NVO       0.128000
     27 H6          11.4620    -1.3350    20.7980 ha         1 NVO       0.130000
     28 H7           9.6270    -0.3270    24.5380 ha         1 NVO       0.116000
     29 H8          11.7660     0.6360    25.3240 ha         1 NVO       0.120000
     30 H9          13.7600     0.6140    23.8480 ha         1 NVO       0.131000
     31 H10          7.4240    -2.0750    20.3600 hn         1 NVO       0.163000
     32 H11          4.3880     2.3850    22.6920 ha         1 NVO       0.120000
     33 H12          3.0690     3.4520    20.8920 ha         1 NVO       0.120000
@<TRIPOS>BOND
     1     1     5 ar  
     2     1    19 ar  
     3     2     3 1   
     4     2     9 ar  
     5     2    11 ar  
     6     3     4 1   
     7     3    22 1   
     8     3    23 1   
     9     4    10 2   
    10     4    16 1   
    11     5    16 1   
    12     5    17 ar  
    13     6    18 ar  
    14     6    19 ar  
    15     6    24 1   
    16     7    18 ar  
    17     7    21 ar  
    18     7    25 1   
    19     8    17 ar  
    20     8    20 ar  
    21     8    26 1   
    22     9    14 ar  
    23     9    27 1   
    24    11    12 ar  
    25    11    28 1   
    26    12    13 ar  
    27    12    29 1   
    28    13    14 ar  
    29    13    30 1   
    30    14    15 1   
    31    16    31 1   
    32    17    18 ar  
    33    20    21 ar  
    34    20    32 1   
    35    21    33 1   
@<TRIPOS>SUBSTRUCTURE
     1 NVO         1 TEMP              0 ****  ****    0 ROOT
