@<TRIPOS>MOLECULE
NVO
   33    35     1     0     0
SMALL
No Charge or Current Charge


@<TRIPOS>ATOM
      1 N1           7.5410     0.1100    18.7250 nb         1 NVO      -0.385000
      2 C4          10.3060    -0.8080    22.8900 ca         1 NVO      -0.066300
      3 C5           8.8120    -1.1030    22.9780 c3         1 NVO      -0.107100
      4 C6           8.0130    -0.1070    22.1300 c          1 NVO       0.600100
      5 C7           6.8840     0.0900    19.9110 ca         1 NVO       0.444900
      6 C8           5.8090     1.3670    17.7510 ca         1 NVO       0.293900
      7 C10          3.8170     2.0060    19.0410 ca         1 NVO      -0.091000
      8 C13          4.8800     0.6650    21.2830 ca         1 NVO      -0.058000
      9 C15         11.0880    -1.3910    21.8730 ca         1 NVO      -0.088000
     10 O            7.7830     1.0350    22.5040 o          1 NVO      -0.553100
     11 C3          10.9160     0.0570    23.8210 ca         1 NVO      -0.090000
     12 C2          12.2920     0.3340    23.7370 ca         1 NVO      -0.100000
     13 C1          13.0660    -0.2520    22.7210 ca         1 NVO      -0.094000
     14 C           12.4620    -1.1130    21.7900 ca         1 NVO       0.126000
     15 Cl          13.4300    -1.8450    20.5170 cl         1 NVO      -0.211000
     16 N            7.5980    -0.5840    20.9110 ns         1 NVO      -0.338900
     17 C14          5.6160     0.7060    20.0780 ca         1 NVO      -0.052000
     18 C9           5.0700     1.3700    18.9540 ca         1 NVO      -0.062000
     19 N2           7.0100     0.7420    17.6570 nb         1 NVO      -0.301000
     20 C12          3.6280     1.3010    21.3640 ca         1 NVO      -0.100000
     21 C11          3.0990     1.9730    20.2480 ca         1 NVO      -0.088000
     22 H1           8.4800    -1.0210    24.0190 hc         1 NVO       0.070200
     23 H2           8.6260    -2.1230    22.6200 hc         1 NVO       0.070200
     24 H3           5.4380     1.8580    16.8530 h4         1 NVO       0.029100
     25 H4           3.3990     2.5190    18.1770 ha         1 NVO       0.123000
     26 H5           5.2600     0.1400    22.1550 ha         1 NVO       0.128000
     27 H6          10.6340    -2.0590    21.1450 ha         1 NVO       0.130000
     28 H7          10.3230     0.5170    24.6090 ha         1 NVO       0.116000
     29 H8          12.7570     1.0030    24.4580 ha         1 NVO       0.120000
     30 H9          14.1300    -0.0390    22.6530 ha         1 NVO       0.131000
     31 H10          7.9010    -1.5160    20.6670 hn         1 NVO       0.163000
     32 H11          3.0640     1.2690    22.2940 ha         1 NVO       0.120000
     33 H12          2.1300     2.4620    20.3180 ha         1 NVO       0.120000
@<TRIPOS>BOND
     1     1     5 ar  
     2     1    19 ar  
     3     2     3 1   
     4     2     9 ar  
     5     2    11 ar  
     6     3     4 1   
     7     3    22 1   
     8     3    23 1   
     9     4    10 2   
    10     4    16 1   
    11     5    16 1   
    12     5    17 ar  
    13     6    18 ar  
    14     6    19 ar  
    15     6    24 1   
    16     7    18 ar  
    17     7    21 ar  
    18     7    25 1   
    19     8    17 ar  
    20     8    20 ar  
    21     8    26 1   
    22     9    14 ar  
    23     9    27 1   
    24    11    12 ar  
    25    11    28 1   
    26    12    13 ar  
    27    12    29 1   
    28    13    14 ar  
    29    13    30 1   
    30    14    15 1   
    31    16    31 1   
    32    17    18 ar  
    33    20    21 ar  
    34    20    32 1   
    35    21    33 1   
@<TRIPOS>SUBSTRUCTURE
     1 NVO         1 TEMP              0 ****  ****    0 ROOT
