@<TRIPOS>MOLECULE
NVP
   34    37     1     0     0
SMALL
bcc


@<TRIPOS>ATOM
      1 N1          -0.8080    -0.5580    -0.4540 na         1 NVP      -0.739000
      2 CA          -2.0640    -1.1130    -0.8990 cx         1 NVP       0.185500
      3 CB          -3.1430    -0.4110    -1.6510 cx         1 NVP      -0.132400
      4 CC          -2.3690    -1.5270    -2.3000 cx         1 NVP      -0.132400
      5 N3          -1.9110     0.3610     1.3790 nb         1 NVP      -0.681000
      6 C4          -1.9300     0.7570     2.6400 ca         1 NVP       0.412200
      7 C5          -0.8200     0.7080     3.4630 ca         1 NVP      -0.243300
      8 C6           0.3650     0.1810     2.9670 ca         1 NVP      -0.061300
      9 CD           1.5870     0.0710     3.8270 c3         1 NVP      -0.055800
     10 C2          -0.7930    -0.1340     0.8850 ca         1 NVP       0.634200
     11 C7           0.3690    -0.2780     1.6500 ca         1 NVP      -0.052700
     12 N8           1.4910    -0.9440     1.1530 ns         1 NVP      -0.469100
     13 C9           2.1310    -0.7730    -0.0380 c          1 NVP       0.746100
     14 OE           3.2190    -1.2690    -0.2330 o          1 NVP      -0.618500
     15 C10          1.4660     0.0540    -1.0780 ca         1 NVP      -0.290900
     16 C15          0.0830     0.0760    -1.3200 ca         1 NVP       0.699200
     17 C11          2.2930     0.7290    -1.9660 ca         1 NVP      -0.027000
     18 C12          1.7490     1.3950    -3.0480 ca         1 NVP      -0.281300
     19 C13          0.3780     1.3150    -3.2190 ca         1 NVP       0.454200
     20 N14         -0.4250     0.6840    -2.3810 nb         1 NVP      -0.722000
     21 HCA         -2.4180    -1.8080    -0.1470 h1         1 NVP       0.087700
     22 HCB1        -4.1630    -0.5880    -1.3350 hc         1 NVP       0.078450
     23 HCB2        -2.9440     0.5880    -2.0090 hc         1 NVP       0.078450
     24 HCC1        -1.6970    -1.2600    -3.1010 hc         1 NVP       0.078450
     25 HCC2        -2.8410    -2.4930    -2.4250 hc         1 NVP       0.078450
     26 HC4         -2.8750     1.1370     3.0100 h4         1 NVP       0.025100
     27 HC5         -0.8770     1.0700     4.4810 ha         1 NVP       0.146000
     28 HCD1         1.8120    -0.9660     4.0890 hc         1 NVP       0.050700
     29 HCD2         2.4670     0.4780     3.3280 hc         1 NVP       0.050700
     30 HCD3         1.4540     0.6100     4.7630 hc         1 NVP       0.050700
     31 HN8          2.0180    -1.5040     1.8070 hn         1 NVP       0.324500
     32 H11          3.3630     0.7030    -1.8110 ha         1 NVP       0.157000
     33 H12          2.3670     1.9360    -3.7500 ha         1 NVP       0.150000
     34 H13         -0.1010     1.7850    -4.0700 h4         1 NVP       0.022100
@<TRIPOS>BOND
     1     1     2 1   
     2     1    10 1   
     3     1    16 1   
     4     2     3 1   
     5     2     4 1   
     6     2    21 1   
     7     3     4 1   
     8     3    22 1   
     9     3    23 1   
    10     4    24 1   
    11     4    25 1   
    12     5     6 ar  
    13     5    10 ar  
    14     6     7 ar  
    15     6    26 1   
    16     7     8 ar  
    17     7    27 1   
    18     8     9 1   
    19     8    11 ar  
    20     9    28 1   
    21     9    29 1   
    22     9    30 1   
    23    10    11 ar  
    24    11    12 1   
    25    12    13 1   
    26    12    31 1   
    27    13    14 2   
    28    13    15 1   
    29    15    16 ar  
    30    15    17 ar  
    31    16    20 ar  
    32    17    18 ar  
    33    17    32 1   
    34    18    19 ar  
    35    18    33 1   
    36    19    20 ar  
    37    19    34 1   
@<TRIPOS>SUBSTRUCTURE
     1 NVP         1 TEMP              0 ****  ****    0 ROOT
