@<TRIPOS>MOLECULE
NVP
   34    37     1     0     0
SMALL
No Charge or Current Charge


@<TRIPOS>ATOM
      1 N1          -1.0890     0.1690    -0.5040 na         1 NVP      -0.739000
      2 CA          -2.1220    -0.7200    -1.0280 cx         1 NVP       0.185500
      3 CB          -1.8760    -1.8360    -2.0130 cx         1 NVP      -0.132400
      4 CC          -2.3100    -2.1570    -0.6050 cx         1 NVP      -0.132400
      5 N3          -1.8780     1.0080     1.5490 nb         1 NVP      -0.681000
      6 C4          -1.7170     1.1270     2.8830 ca         1 NVP       0.346900
      7 C5          -0.6120     0.6040     3.5680 ca         1 NVP      -0.160000
      8 C6           0.3910    -0.0680     2.8520 ca         1 NVP      -0.061300
      9 CD           1.6020    -0.6410     3.5810 c3         1 NVP      -0.055800
     10 C2          -0.9240     0.3720     0.8410 ca         1 NVP       0.568900
     11 C7           0.2400    -0.1770     1.4520 ca         1 NVP       0.012600
     12 N8           1.2400    -0.8590     0.6990 ns         1 NVP      -0.402100
     13 C9           1.6520    -0.7090    -0.6060 c          1 NVP       0.603600
     14 OE           2.5060    -1.4610    -1.0500 o          1 NVP      -0.543000
     15 C10          1.0970     0.4060    -1.4390 ca         1 NVP      -0.225600
     16 C15         -0.2360     0.8460    -1.3270 ca         1 NVP       0.633900
     17 C11          1.9360     1.0160    -2.3930 ca         1 NVP      -0.009000
     18 C12          1.4220     2.0650    -3.1620 ca         1 NVP      -0.198000
     19 C13          0.0940     2.4560    -2.9660 ca         1 NVP       0.388900
     20 N14         -0.7200     1.8530    -2.0780 nb         1 NVP      -0.722000
     21 HCA         -3.0240    -0.1210    -1.1700 h1         1 NVP       0.087700
     22 HCB1        -2.6000    -1.9680    -2.8130 hc         1 NVP       0.078450
     23 HCB2        -0.8470    -2.0540    -2.2870 hc         1 NVP       0.078450
     24 HCC1        -1.5720    -2.5880     0.0660 hc         1 NVP       0.078450
     25 HCC2        -3.3280    -2.5050    -0.4520 hc         1 NVP       0.078450
     26 HC4         -2.5060     1.6500     3.4210 h4         1 NVP       0.025100
     27 HC5         -0.5460     0.7260     4.6460 ha         1 NVP       0.128000
     28 HCD1         1.6290    -1.7340     3.5030 hc         1 NVP       0.050700
     29 HCD2         2.5380    -0.2480     3.1650 hc         1 NVP       0.050700
     30 HCD3         1.5890    -0.3890     4.6480 hc         1 NVP       0.050700
     31 HN8          1.7330    -1.5900     1.1960 hn         1 NVP       0.324500
     32 H11          2.9690     0.6960    -2.5230 ha         1 NVP       0.139000
     33 H12          2.0380     2.5720    -3.8990 ha         1 NVP       0.132000
     34 H13         -0.3370     3.2690    -3.5490 h4         1 NVP       0.022100
@<TRIPOS>BOND
     1     1     2 1   
     2     1    10 1   
     3     1    16 1   
     4     2     3 1   
     5     2     4 1   
     6     2    21 1   
     7     3     4 1   
     8     3    22 1   
     9     3    23 1   
    10     4    24 1   
    11     4    25 1   
    12     5     6 ar  
    13     5    10 ar  
    14     6     7 ar  
    15     6    26 1   
    16     7     8 ar  
    17     7    27 1   
    18     8     9 1   
    19     8    11 ar  
    20     9    28 1   
    21     9    29 1   
    22     9    30 1   
    23    10    11 ar  
    24    11    12 1   
    25    12    13 1   
    26    12    31 1   
    27    13    14 2   
    28    13    15 1   
    29    15    16 ar  
    30    15    17 ar  
    31    16    20 ar  
    32    17    18 ar  
    33    17    32 1   
    34    18    19 ar  
    35    18    33 1   
    36    19    20 ar  
    37    19    34 1   
@<TRIPOS>SUBSTRUCTURE
     1 NVP         1 TEMP              0 ****  ****    0 ROOT
