@<TRIPOS>MOLECULE
NVQ
   59    61     1     0     0
SMALL
No Charge or Current Charge


@<TRIPOS>ATOM
      1 N1           0.0780     8.8270    21.9600 n          1 NVQ      -0.329000
      2 C1          -0.9450     8.3500    22.7800 cc         1 NVQ       0.386600
      3 C2          -1.2430     6.9980    22.8550 cd         1 NVQ      -0.229200
      4 C3          -0.5100     6.0630    21.9580 c          1 NVQ       0.596200
      5 N2           0.4030     6.6530    21.1550 ns         1 NVQ      -0.468500
      6 C4           0.7600     7.9540    21.0990 c          1 NVQ       0.622000
      7 O1           1.6410     8.3090    20.3330 o          1 NVQ      -0.543000
      8 O2          -0.6880     4.8550    21.9170 o          1 NVQ      -0.532000
      9 C5           0.5900    10.2240    22.0560 c3         1 NVQ       0.142300
     10 N3          -1.6720     9.2540    23.5160 nu         1 NVQ      -0.793200
     11 N4          -2.2130     6.5210    23.7920 nh         1 NVQ      -0.585300
     12 S1          -1.9190     6.4630    25.4830 sy         1 NVQ       1.151600
     13 C6          -3.3830     5.7580    23.3210 c3         1 NVQ       0.195100
     14 C7          -0.1300     6.2360    25.4740 ca         1 NVQ      -0.283500
     15 C8           0.7320     7.3450    25.6030 ca         1 NVQ      -0.009000
     16 C9           2.1240     7.1610    25.5500 ca         1 NVQ      -0.127000
     17 C10          2.6620     5.8760    25.3660 ca         1 NVQ      -0.051000
     18 C11          1.8040     4.7710    25.2340 ca         1 NVQ      -0.127000
     19 C12          0.4110     4.9470    25.2860 ca         1 NVQ      -0.009000
     20 O3          -2.2400     7.8000    25.9940 o          1 NVQ      -0.541500
     21 O4          -2.5620     5.2530    26.0110 o          1 NVQ      -0.541500
     22 C13          1.6430    10.3980    23.1460 ca         1 NVQ      -0.091300
     23 C14          3.0020    10.1490    22.8690 ca         1 NVQ      -0.095500
     24 C15          3.9730    10.3030    23.8750 ca         1 NVQ      -0.073500
     25 C16          3.5880    10.7090    25.1630 ca         1 NVQ      -0.010900
     26 C17          2.2360    10.9600    25.4480 ca         1 NVQ      -0.073500
     27 C18          1.2670    10.8040    24.4420 ca         1 NVQ      -0.095500
     28 Br1          4.9050    10.9080    26.5340 br         1 NVQ      -0.093100
     29 C19         -2.6600    10.1490    22.9070 c3         1 NVQ       0.209800
     30 C20         -2.7780    11.4460    23.7280 c3         1 NVQ      -0.131400
     31 C21         -3.8500    12.4280    23.2040 c3         1 NVQ       0.163800
     32 N5          -3.5600    12.9160    21.8350 n7         1 NVQ      -0.874400
     33 C22         -2.3690    13.7760    21.6710 c3         1 NVQ       0.151100
     34 H1           0.9050     6.0370    20.5370 hn         1 NVQ       0.348500
     35 H2           1.0170    10.5340    21.0940 h1         1 NVQ       0.081700
     36 H3          -0.2310    10.9240    22.2410 h1         1 NVQ       0.081700
     37 H4          -2.0460     8.7690    24.3350 hn         1 NVQ       0.498000
     38 H5          -4.2730     6.0040    23.9150 h1         1 NVQ       0.054367
     39 H6          -3.5980     5.9960    22.2720 h1         1 NVQ       0.054367
     40 H7          -3.1950     4.6790    23.3980 h1         1 NVQ       0.054367
     41 H8           0.3310     8.3480    25.7360 ha         1 NVQ       0.130000
     42 H9           2.7880     8.0150    25.6490 ha         1 NVQ       0.116000
     43 H10          3.7400     5.7380    25.3240 ha         1 NVQ       0.114000
     44 H11          2.2190     3.7770    25.0860 ha         1 NVQ       0.116000
     45 H12         -0.2440     4.0860    25.1670 ha         1 NVQ       0.130000
     46 H13          3.3100     9.8350    21.8740 ha         1 NVQ       0.112000
     47 H14          5.0190    10.1070    23.6550 ha         1 NVQ       0.130500
     48 H15          1.9380    11.2710    26.4470 ha         1 NVQ       0.130500
     49 H16          0.2230    10.9960    24.6740 ha         1 NVQ       0.112000
     50 H17         -2.3770    10.3820    21.8720 h1         1 NVQ       0.045200
     51 H18         -3.6380     9.6470    22.8800 h1         1 NVQ       0.045200
     52 H19         -3.0350    11.1830    24.7610 hc         1 NVQ       0.061200
     53 H20         -1.8060    11.9480    23.7720 hc         1 NVQ       0.061200
     54 H21         -3.9220    13.2750    23.9020 h1         1 NVQ       0.057200
     55 H22         -4.8250    11.9190    23.2230 h1         1 NVQ       0.057200
     56 H23         -3.4800    12.1120    21.1990 hn         1 NVQ       0.412000
     57 H25         -2.3070    14.1530    20.6420 h1         1 NVQ       0.028367
     58 H26         -2.4140    14.6410    22.3470 h1         1 NVQ       0.028367
     59 H27         -1.4440    13.2220    21.8810 h1         1 NVQ       0.028367
@<TRIPOS>BOND
     1     1     2 1   
     2     1     6 1   
     3     1     9 1   
     4     2     3 2   
     5     2    10 1   
     6     3     4 1   
     7     3    11 1   
     8     4     5 1   
     9     4     8 2   
    10     5     6 1   
    11     5    34 1   
    12     6     7 2   
    13     9    22 1   
    14     9    35 1   
    15     9    36 1   
    16    10    29 1   
    17    10    37 1   
    18    11    12 1   
    19    11    13 1   
    20    12    14 1   
    21    12    20 2   
    22    12    21 2   
    23    13    38 1   
    24    13    39 1   
    25    13    40 1   
    26    14    15 ar  
    27    14    19 ar  
    28    15    16 ar  
    29    15    41 1   
    30    16    17 ar  
    31    16    42 1   
    32    17    18 ar  
    33    17    43 1   
    34    18    19 ar  
    35    18    44 1   
    36    19    45 1   
    37    22    23 ar  
    38    22    27 ar  
    39    23    24 ar  
    40    23    46 1   
    41    24    25 ar  
    42    24    47 1   
    43    25    26 ar  
    44    25    28 1   
    45    26    27 ar  
    46    26    48 1   
    47    27    49 1   
    48    29    30 1   
    49    29    50 1   
    50    29    51 1   
    51    30    31 1   
    52    30    52 1   
    53    30    53 1   
    54    31    32 1   
    55    31    54 1   
    56    31    55 1   
    57    32    33 1   
    58    32    56 1   
    59    33    57 1   
    60    33    58 1   
    61    33    59 1   
@<TRIPOS>SUBSTRUCTURE
     1 NVQ         1 TEMP              0 ****  ****    0 ROOT
