@<TRIPOS>MOLECULE
NVQ
   59    61     1     0     0
SMALL
bcc


@<TRIPOS>ATOM
      1 N1          -0.0660     9.2520    21.8490 n          1 NVQ      -0.396000
      2 C1          -0.8640     8.6650    22.8120 cc         1 NVQ       0.386600
      3 C2          -0.7730     7.3150    23.0620 cd         1 NVQ      -0.229200
      4 C3           0.0240     6.4720    22.2160 c          1 NVQ       0.738700
      5 N2           0.6640     7.1460    21.1860 ns         1 NVQ      -0.602500
      6 C4           0.6900     8.4890    20.9660 c          1 NVQ       0.831500
      7 O1           1.3450     8.9830    20.0730 o          1 NVQ      -0.618500
      8 O2           0.1150     5.2610    22.3030 o          1 NVQ      -0.607500
      9 C5           0.2980    10.6640    21.9660 c3         1 NVQ       0.142300
     10 N3          -1.6820     9.4800    23.5130 nu         1 NVQ      -0.738000
     11 N4          -1.6050     6.7360    24.0440 nh         1 NVQ      -0.585300
     12 S1          -0.9350     6.5880    25.5650 sy         1 NVQ       1.293200
     13 C6          -2.6060     5.7500    23.6340 c3         1 NVQ       0.195100
     14 C7           0.3930     5.4330    25.4270 ca         1 NVQ      -0.283500
     15 C8           1.6780     5.9020    25.1890 ca         1 NVQ      -0.027000
     16 C9           2.7060     4.9870    25.0230 ca         1 NVQ      -0.145000
     17 C10          2.4450     3.6260    25.0980 ca         1 NVQ      -0.069000
     18 C11          1.1560     3.1710    25.3480 ca         1 NVQ      -0.145000
     19 C12          0.1190     4.0750    25.5170 ca         1 NVQ      -0.027000
     20 O3          -0.3660     7.8830    25.8960 o          1 NVQ      -0.612300
     21 O4          -1.9660     6.0130    26.4150 o          1 NVQ      -0.612300
     22 C13          1.1070    10.9620    23.2020 ca         1 NVQ      -0.091300
     23 C14          1.9200    10.0150    23.8120 ca         1 NVQ      -0.113500
     24 C15          2.6810    10.3380    24.9260 ca         1 NVQ      -0.091500
     25 C16          2.6310    11.6280    25.4310 ca         1 NVQ      -0.010900
     26 C17          1.8330    12.5940    24.8360 ca         1 NVQ      -0.091500
     27 C18          1.0760    12.2490    23.7270 ca         1 NVQ      -0.113500
     28 BR1          3.6610    12.0750    26.9490 br         1 NVQ      -0.093100
     29 C19         -2.6630    10.3570    22.8700 c3         1 NVQ       0.209800
     30 C20         -2.8110    11.6700    23.6190 c3         1 NVQ      -0.131400
     31 C21         -3.8670    12.5900    23.0010 c3         1 NVQ       0.163800
     32 N5          -3.6240    13.0700    21.6550 n7         1 NVQ      -0.819200
     33 C22         -2.4420    13.8880    21.5000 c3         1 NVQ       0.151100
     34 H1           1.2030     6.5840    20.5390 hn         1 NVQ       0.348500
     35 H2           0.8690    10.9200    21.0760 h1         1 NVQ       0.081700
     36 H3          -0.5840    11.2990    21.9380 h1         1 NVQ       0.081700
     37 H4          -2.0630     9.0190    24.3260 hn         1 NVQ       0.442800
     38 H5          -3.4270     5.7290    24.3450 h1         1 NVQ       0.054367
     39 H6          -3.0030     6.0720    22.6750 h1         1 NVQ       0.054367
     40 H7          -2.1980     4.7460    23.5190 h1         1 NVQ       0.054367
     41 H8           1.8800     6.9640    25.1410 ha         1 NVQ       0.148000
     42 H9           3.7120     5.3390    24.8380 ha         1 NVQ       0.134000
     43 H10          3.2500     2.9150    24.9690 ha         1 NVQ       0.132000
     44 H11          0.9580     2.1100    25.4190 ha         1 NVQ       0.134000
     45 H12         -0.8810     3.7190    25.7240 ha         1 NVQ       0.148000
     46 H13          1.9790     9.0020    23.4360 ha         1 NVQ       0.130000
     47 H14          3.3060     9.5840    25.3850 ha         1 NVQ       0.148500
     48 H15          1.7880    13.6020    25.2240 ha         1 NVQ       0.148500
     49 H16          0.4530    13.0070    23.2650 ha         1 NVQ       0.130000
     50 H17         -2.3850    10.5140    21.8280 h1         1 NVQ       0.045200
     51 H18         -3.6260     9.8360    22.8400 h1         1 NVQ       0.045200
     52 H19         -3.1020    11.4590    24.6520 hc         1 NVQ       0.061200
     53 H20         -1.8430    12.1750    23.6770 hc         1 NVQ       0.061200
     54 H21         -3.9860    13.4600    23.6520 h1         1 NVQ       0.057200
     55 H22         -4.8310    12.0730    23.0030 h1         1 NVQ       0.057200
     56 H23         -3.6120    12.3050    20.9940 hn         1 NVQ       0.356800
     57 H25         -2.3800    14.2550    20.4750 h1         1 NVQ       0.028367
     58 H26         -2.5100    14.7580    22.1560 h1         1 NVQ       0.028367
     59 H27         -1.4850    13.3930    21.7220 h1         1 NVQ       0.028367
@<TRIPOS>BOND
     1     1     2 1   
     2     1     6 1   
     3     1     9 1   
     4     2     3 2   
     5     2    10 1   
     6     3     4 1   
     7     3    11 1   
     8     4     5 1   
     9     4     8 2   
    10     5     6 1   
    11     5    34 1   
    12     6     7 2   
    13     9    22 1   
    14     9    35 1   
    15     9    36 1   
    16    10    29 1   
    17    10    37 1   
    18    11    12 1   
    19    11    13 1   
    20    12    14 1   
    21    12    20 2   
    22    12    21 2   
    23    13    38 1   
    24    13    39 1   
    25    13    40 1   
    26    14    15 ar  
    27    14    19 ar  
    28    15    16 ar  
    29    15    41 1   
    30    16    17 ar  
    31    16    42 1   
    32    17    18 ar  
    33    17    43 1   
    34    18    19 ar  
    35    18    44 1   
    36    19    45 1   
    37    22    23 ar  
    38    22    27 ar  
    39    23    24 ar  
    40    23    46 1   
    41    24    25 ar  
    42    24    47 1   
    43    25    26 ar  
    44    25    28 1   
    45    26    27 ar  
    46    26    48 1   
    47    27    49 1   
    48    29    30 1   
    49    29    50 1   
    50    29    51 1   
    51    30    31 1   
    52    30    52 1   
    53    30    53 1   
    54    31    32 1   
    55    31    54 1   
    56    31    55 1   
    57    32    33 1   
    58    32    56 1   
    59    33    57 1   
    60    33    58 1   
    61    33    59 1   
@<TRIPOS>SUBSTRUCTURE
     1 NVQ         1 TEMP              0 ****  ****    0 ROOT
