@<TRIPOS>MOLECULE
NVS
   33    35     1     0     0
SMALL
abcg2


@<TRIPOS>ATOM
      1 N8          -0.0770    -0.1780     0.0960 n          1 NVS      -0.263400
      2 C9           0.4500    -1.4120    -0.0250 c          1 NVS       0.719100
      3 O10          1.7940    -1.5230     0.0830 os         1 NVS      -0.336200
      4 C11          2.6140    -0.4260     0.0700 ca         1 NVS       0.188100
      5 C12          2.1080     0.8340     0.3150 ca         1 NVS      -0.205300
      6 C13          0.6520     0.9760     0.6100 c6         1 NVS       0.176300
      7 O14         -0.1800    -2.4200    -0.2360 o          1 NVS      -0.514000
      8 C21          3.9550    -0.6520    -0.1910 ca         1 NVS      -0.223000
      9 C22          4.8260     0.4330    -0.2050 ca         1 NVS       0.173100
     10 C23          4.3400     1.7190     0.0360 ca         1 NVS      -0.165000
     11 C24          2.9930     1.9050     0.2880 ca         1 NVS      -0.034000
     12 O25          6.1400     0.2960    -0.4530 oh         1 NVS      -0.527100
     13 C1          -1.4880    -0.0420    -0.0300 ca         1 NVS      -0.092000
     14 C2          -2.0480     0.2240    -1.2740 ca         1 NVS      -0.059500
     15 C3          -3.4120     0.3940    -1.4040 ca         1 NVS      -0.169500
     16 C4          -4.2420     0.3070    -0.2830 ca         1 NVS       0.151100
     17 C5          -3.6810     0.0470     0.9660 ca         1 NVS      -0.169500
     18 C6          -2.3070    -0.1270     1.0830 ca         1 NVS      -0.059500
     19 O7          -5.5550     0.4850    -0.5010 os         1 NVS      -0.339100
     20 C8          -6.4430     0.4010     0.5970 c3         1 NVS       0.147900
     21 H1           0.2510     1.8690     0.1280 h1         1 NVS       0.055200
     22 H2           0.4730     1.0840     1.6860 h1         1 NVS       0.055200
     23 H3           4.3080    -1.6580    -0.3860 ha         1 NVS       0.138000
     24 H4           5.0170     2.5620     0.0180 ha         1 NVS       0.135000
     25 H5           2.6210     2.9050     0.4700 ha         1 NVS       0.119000
     26 H6           6.3610    -0.6260    -0.6210 ho         1 NVS       0.472000
     27 H7          -1.4090     0.2990    -2.1460 ha         1 NVS       0.123500
     28 H8          -3.8460     0.5990    -2.3740 ha         1 NVS       0.126500
     29 H9          -4.2920    -0.0250     1.8550 ha         1 NVS       0.126500
     30 H10         -1.8810    -0.3350     2.0560 ha         1 NVS       0.123500
     31 H11         -6.2330     1.1620     1.3520 h1         1 NVS       0.042700
     32 H12         -7.4410     0.5680     0.1990 h1         1 NVS       0.042700
     33 H13         -6.4140    -0.5840     1.0700 h1         1 NVS       0.042700
@<TRIPOS>BOND
     1     1     2 1   
     2     1     6 1   
     3     1    13 1   
     4     2     3 1   
     5     2     7 2   
     6     3     4 1   
     7     4     5 ar  
     8     4     8 ar  
     9     5     6 1   
    10     5    11 ar  
    11     6    21 1   
    12     6    22 1   
    13     8     9 ar  
    14     8    23 1   
    15     9    10 ar  
    16     9    12 1   
    17    10    11 ar  
    18    10    24 1   
    19    11    25 1   
    20    12    26 1   
    21    13    14 ar  
    22    13    18 ar  
    23    14    15 ar  
    24    14    27 1   
    25    15    16 ar  
    26    15    28 1   
    27    16    17 ar  
    28    16    19 1   
    29    17    18 ar  
    30    17    29 1   
    31    18    30 1   
    32    19    20 1   
    33    20    31 1   
    34    20    32 1   
    35    20    33 1   
@<TRIPOS>SUBSTRUCTURE
     1 NVS         1 TEMP              0 ****  ****    0 ROOT
