@<TRIPOS>MOLECULE
NVS
   33    35     1     0     0
SMALL
No Charge or Current Charge


@<TRIPOS>ATOM
      1 N8          -0.0840    -0.2620    -0.0750 n          1 NVS      -0.263400
      2 C9           0.5400    -1.4320    -0.6040 c          1 NVS       0.719100
      3 O10          1.9140    -1.4500    -0.5800 os         1 NVS      -0.336200
      4 C11          2.7180    -0.4120    -0.2060 ca         1 NVS       0.188100
      5 C12          2.1700     0.7000     0.4320 ca         1 NVS      -0.205300
      6 C13          0.6890     0.7050     0.7350 c6         1 NVS       0.176300
      7 O14         -0.0900    -2.3790    -1.0580 o          1 NVS      -0.514000
      8 C21          4.0930    -0.4740    -0.4750 ca         1 NVS      -0.223000
      9 C22          4.9210     0.5950    -0.1030 ca         1 NVS       0.173100
     10 C23          4.3750     1.7180     0.5370 ca         1 NVS      -0.165000
     11 C24          2.9970     1.7740     0.8090 ca         1 NVS      -0.034000
     12 O25          6.2580     0.5490    -0.3600 oh         1 NVS      -0.527100
     13 C1          -1.5070    -0.0060    -0.1890 ca         1 NVS      -0.092000
     14 C2          -2.2190    -0.3860    -1.3480 ca         1 NVS      -0.059500
     15 C3          -3.6190    -0.2760    -1.4010 ca         1 NVS      -0.169500
     16 C4          -4.3420     0.1610    -0.2830 ca         1 NVS       0.151100
     17 C5          -3.6520     0.4700     0.9060 ca         1 NVS      -0.169500
     18 C6          -2.2500     0.3620     0.9570 ca         1 NVS      -0.059500
     19 O7          -5.7160     0.2450    -0.3930 os         1 NVS      -0.339100
     20 C8          -6.5470     0.6790     0.6990 c3         1 NVS       0.147900
     21 H1           0.2910     1.7160     0.5650 h1         1 NVS       0.055200
     22 H2           0.5520     0.4680     1.8000 h1         1 NVS       0.055200
     23 H3           4.5010    -1.3490    -0.9720 ha         1 NVS       0.138000
     24 H4           5.0190     2.5450     0.8260 ha         1 NVS       0.135000
     25 H5           2.5780     2.6430     1.3140 ha         1 NVS       0.119000
     26 H6           6.4580    -0.3010    -0.8060 ho         1 NVS       0.472000
     27 H7          -1.6880    -0.7350    -2.2300 ha         1 NVS       0.123500
     28 H8          -4.1480    -0.5410    -2.3130 ha         1 NVS       0.126500
     29 H9          -4.1810     0.7810     1.8010 ha         1 NVS       0.126500
     30 H10         -1.7490     0.5700     1.8990 ha         1 NVS       0.123500
     31 H11         -6.2830     1.6970     1.0100 h1         1 NVS       0.042700
     32 H12         -7.6020     0.6790     0.3960 h1         1 NVS       0.042700
     33 H13         -6.4410     0.0070     1.5600 h1         1 NVS       0.042700
@<TRIPOS>BOND
     1     1     2 1   
     2     1     6 1   
     3     1    13 1   
     4     2     3 1   
     5     2     7 2   
     6     3     4 1   
     7     4     5 ar  
     8     4     8 ar  
     9     5     6 1   
    10     5    11 ar  
    11     6    21 1   
    12     6    22 1   
    13     8     9 ar  
    14     8    23 1   
    15     9    10 ar  
    16     9    12 1   
    17    10    11 ar  
    18    10    24 1   
    19    11    25 1   
    20    12    26 1   
    21    13    14 ar  
    22    13    18 ar  
    23    14    15 ar  
    24    14    27 1   
    25    15    16 ar  
    26    15    28 1   
    27    16    17 ar  
    28    16    19 1   
    29    17    18 ar  
    30    17    29 1   
    31    18    30 1   
    32    19    20 1   
    33    20    31 1   
    34    20    32 1   
    35    20    33 1   
@<TRIPOS>SUBSTRUCTURE
     1 NVS         1 TEMP              0 ****  ****    0 ROOT
