@<TRIPOS>MOLECULE
NVU
   19    20     1     0     0
SMALL
bcc


@<TRIPOS>ATOM
      1 CA          -1.8220     0.2440    -0.9660 c3         1 NVU      -0.264700
      2 C           -2.5870    -0.5360     0.1330 c          1 NVU       0.939600
      3 O           -1.9970    -0.7150     1.2110 o          1 NVU      -0.825300
      4 OXT         -3.7320    -0.9070    -0.1810 o          1 NVU      -0.825300
      5 CB          -0.4660     0.6690    -0.5470 cc         1 NVU       0.467900
      6 CG           0.6790    -0.1570    -0.2970 ca         1 NVU      -0.211900
      7 CD1          0.9550    -1.5220    -0.3180 ca         1 NVU      -0.014000
      8 CE1          2.2430    -1.9190    -0.0150 ca         1 NVU      -0.193000
      9 CZ           3.2320    -0.9770     0.3150 ca         1 NVU      -0.103000
     10 CE2          2.9700     0.3810     0.3480 ca         1 NVU      -0.160000
     11 CD2          1.6700     0.7540     0.0320 ca         1 NVU       0.073100
     12 OH           1.1660     1.9970    -0.0090 os         1 NVU      -0.050600
     13 NAL         -0.1620     1.9170    -0.3800 nd         1 NVU      -0.444200
     14 HA1C        -1.7410    -0.3880    -1.8560 hc         1 NVU       0.047200
     15 HA2C        -2.4070     1.1180    -1.2660 hc         1 NVU       0.047200
     16 HD1          0.1890    -2.2470    -0.5620 ha         1 NVU       0.153000
     17 HE1          2.4990    -2.9700    -0.0220 ha         1 NVU       0.119000
     18 HZ           4.2290    -1.3240     0.5520 ha         1 NVU       0.112000
     19 HE2          3.7320     1.1040     0.6050 ha         1 NVU       0.134000
@<TRIPOS>BOND
     1     1     2 1   
     2     1     5 1   
     3     1    14 1   
     4     1    15 1   
     5     2     3 1   
     6     2     4 1   
     7     5     6 1   
     8     5    13 2   
     9     6     7 ar  
    10     6    11 ar  
    11     7     8 ar  
    12     7    16 1   
    13     8     9 ar  
    14     8    17 1   
    15     9    10 ar  
    16     9    18 1   
    17    10    11 ar  
    18    10    19 1   
    19    11    12 1   
    20    12    13 1   
@<TRIPOS>SUBSTRUCTURE
     1 NVU         1 TEMP              0 ****  ****    0 ROOT
