@<TRIPOS>MOLECULE
NVU
   19    20     1     0     0
SMALL
No Charge or Current Charge


@<TRIPOS>ATOM
      1 CA          -1.8150    -0.0140    -1.0790 c3         1 NVU      -0.264700
      2 C           -2.5800    -0.4990     0.1340 c          1 NVU       0.729000
      3 O           -2.3540    -1.6280     0.5380 o          1 NVU      -0.720000
      4 OXT         -3.2960     0.3000     0.7150 o          1 NVU      -0.720000
      5 CB          -0.5260     0.5820    -0.6180 cc         1 NVU       0.467900
      6 CG           0.6760    -0.1300    -0.3150 ca         1 NVU      -0.211900
      7 CD1          0.9880    -1.4980    -0.3180 ca         1 NVU       0.004000
      8 CE1          2.3040    -1.8640     0.0400 ca         1 NVU      -0.175000
      9 CZ           3.2570    -0.8750     0.3860 ca         1 NVU      -0.085000
     10 CE2          2.9010     0.4910     0.3760 ca         1 NVU      -0.142000
     11 CD2          1.5890     0.8210     0.0160 ca         1 NVU       0.073100
     12 OH           1.0480     2.0760    -0.0580 os         1 NVU      -0.149100
     13 NAL         -0.3380     1.9000    -0.4830 nd         1 NVU      -0.345700
     14 HA1C        -1.5560    -0.8530    -1.7340 hc         1 NVU       0.047200
     15 HA2C        -2.3710     0.7800    -1.5890 hc         1 NVU       0.047200
     16 HD1          0.2480    -2.2500    -0.5840 ha         1 NVU       0.135000
     17 HE1          2.5870    -2.9140     0.0510 ha         1 NVU       0.101000
     18 HZ           4.2680    -1.1680     0.6610 ha         1 NVU       0.094000
     19 HE2          3.6200     1.2630     0.6390 ha         1 NVU       0.116000
@<TRIPOS>BOND
     1     1     2 1   
     2     1     5 1   
     3     1    14 1   
     4     1    15 1   
     5     2     3 1   
     6     2     4 1   
     7     5     6 1   
     8     5    13 2   
     9     6     7 ar  
    10     6    11 ar  
    11     7     8 ar  
    12     7    16 1   
    13     8     9 ar  
    14     8    17 1   
    15     9    10 ar  
    16     9    18 1   
    17    10    11 ar  
    18    10    19 1   
    19    11    12 1   
    20    12    13 1   
@<TRIPOS>SUBSTRUCTURE
     1 NVU         1 TEMP              0 ****  ****    0 ROOT
