@<TRIPOS>MOLECULE
NVW
   61    64     1     0     0
SMALL
bcc


@<TRIPOS>ATOM
      1 N1          -3.5560     1.8740    -0.1640 nb         1 NVW      -0.776000
      2 C1          -2.2000    -0.4660     0.2250 ca         1 NVW       0.815200
      3 N2          -1.5610     0.6940     0.2360 nb         1 NVW      -0.796000
      4 C2          -2.2510     1.8070     0.0580 cp         1 NVW       0.824500
      5 C3          -1.4960     3.0760     0.1010 cp         1 NVW      -0.172500
      6 N3          -1.4710    -1.5870     0.3970 nu         1 NVW      -0.734300
      7 C4          -0.1210     3.0710     0.3450 ca         1 NVW      -0.073500
      8 C5           0.5860     4.2620     0.3910 ca         1 NVW      -0.149000
      9 C6          -0.0690     5.4710     0.1930 ca         1 NVW      -0.102000
     10 C7          -1.4370     5.4840    -0.0510 ca         1 NVW      -0.149000
     11 C8          -2.1470     4.2940    -0.0960 ca         1 NVW      -0.073500
     12 C9          -4.2380     0.7320    -0.1920 ca         1 NVW       0.579600
     13 C10         -3.6070    -0.4870     0.0260 ca         1 NVW      -0.580100
     14 S1          -4.4810    -2.0220     0.0080 sy         1 NVW       1.096300
     15 C11         -6.1860    -1.5210     0.0780 c6         1 NVW      -0.190600
     16 C12         -6.4210    -0.3840    -0.8990 c6         1 NVW      -0.057400
     17 C13         -5.7110     0.8770    -0.4410 c6         1 NVW      -0.155700
     18 O1          -4.2230    -2.6780    -1.2740 o          1 NVW      -0.600800
     19 O2          -4.1320    -2.7710     1.2160 o          1 NVW      -0.600800
     20 C14         -0.0700    -1.6410     0.5560 ca         1 NVW       0.150600
     21 C15          0.6110    -0.8270     1.4580 ca         1 NVW      -0.130000
     22 C16          2.0140    -2.6930    -0.0350 ca         1 NVW      -0.099000
     23 C17          0.6390    -2.5820    -0.1810 ca         1 NVW      -0.130000
     24 C18          2.7100    -1.8630     0.8350 ca         1 NVW      -0.069300
     25 C19          1.9860    -0.9370     1.5800 ca         1 NVW      -0.099000
     26 C20          4.2000    -1.9410     0.9520 c3         1 NVW      -0.117100
     27 C21          4.9030    -0.9300     0.0460 c          1 NVW       0.668100
     28 N4           6.2420    -1.0020     0.1010 ns         1 NVW      -0.582900
     29 O3           4.2800    -0.1410    -0.6460 o          1 NVW      -0.591100
     30 C22          7.2020    -0.1760    -0.6410 c3         1 NVW       0.141400
     31 C23          7.0350     1.3020    -0.2870 c3         1 NVW      -0.103767
     32 C24          8.5890    -0.6420    -0.2020 c3         1 NVW      -0.103767
     33 C25          7.0510    -0.3900    -2.1480 c3         1 NVW      -0.103767
     34 H1          -1.9170    -2.4810     0.2700 hn         1 NVW       0.459800
     35 H2           0.3920     2.1310     0.5010 ha         1 NVW       0.155000
     36 H3           1.6510     4.2460     0.5810 ha         1 NVW       0.134500
     37 H4           0.4850     6.4000     0.2310 ha         1 NVW       0.130000
     38 H5          -1.9520     6.4220    -0.2080 ha         1 NVW       0.134500
     39 H6          -3.2120     4.3070    -0.2840 ha         1 NVW       0.155000
     40 H7          -6.7570    -2.4190    -0.1620 h1         1 NVW       0.109200
     41 H8          -6.3990    -1.2270     1.1070 h1         1 NVW       0.109200
     42 H9          -6.1000    -0.6720    -1.9030 hc         1 NVW       0.068200
     43 H10         -7.4920    -0.1960    -0.9570 hc         1 NVW       0.068200
     44 H11         -6.1630     1.2340     0.4910 hc         1 NVW       0.081700
     45 H12         -5.8460     1.6770    -1.1690 hc         1 NVW       0.081700
     46 H13          0.0740    -0.1110     2.0630 ha         1 NVW       0.144500
     47 H14          2.5470    -3.4330    -0.6190 ha         1 NVW       0.132000
     48 H15          0.1170    -3.2270    -0.8770 ha         1 NVW       0.144500
     49 H16          2.5010    -0.2920     2.2820 ha         1 NVW       0.132000
     50 H17          4.5160    -1.7560     1.9830 hc         1 NVW       0.061200
     51 H18          4.5560    -2.9440     0.7020 hc         1 NVW       0.061200
     52 H19          6.6340    -1.7110     0.7010 hn         1 NVW       0.305500
     53 H20          7.1330     1.4540     0.7890 hc         1 NVW       0.044144
     54 H21          7.8100     1.8920    -0.7800 hc         1 NVW       0.044144
     55 H22          6.0680     1.6890    -0.6020 hc         1 NVW       0.044144
     56 H23          8.7420    -1.6990    -0.4280 hc         1 NVW       0.044144
     57 H24          9.3590    -0.0750    -0.7240 hc         1 NVW       0.044144
     58 H25          8.7350    -0.4960     0.8700 hc         1 NVW       0.044144
     59 H26          6.0760    -0.0670    -2.5060 hc         1 NVW       0.044144
     60 H27          7.8120     0.1800    -2.6840 hc         1 NVW       0.044144
     61 H28          7.1790    -1.4430    -2.4050 hc         1 NVW       0.044144
@<TRIPOS>BOND
     1     1     4 ar  
     2     1    12 ar  
     3     2     3 ar  
     4     2     6 1   
     5     2    13 ar  
     6     3     4 ar  
     7     4     5 1   
     8     5     7 ar  
     9     5    11 ar  
    10     6    20 1   
    11     6    34 1   
    12     7     8 ar  
    13     7    35 1   
    14     8     9 ar  
    15     8    36 1   
    16     9    10 ar  
    17     9    37 1   
    18    10    11 ar  
    19    10    38 1   
    20    11    39 1   
    21    12    13 ar  
    22    12    17 1   
    23    13    14 1   
    24    14    15 1   
    25    14    18 2   
    26    14    19 2   
    27    15    16 1   
    28    15    40 1   
    29    15    41 1   
    30    16    17 1   
    31    16    42 1   
    32    16    43 1   
    33    17    44 1   
    34    17    45 1   
    35    20    21 ar  
    36    20    23 ar  
    37    21    25 ar  
    38    21    46 1   
    39    22    23 ar  
    40    22    24 ar  
    41    22    47 1   
    42    23    48 1   
    43    24    25 ar  
    44    24    26 1   
    45    25    49 1   
    46    26    27 1   
    47    26    50 1   
    48    26    51 1   
    49    27    28 1   
    50    27    29 2   
    51    28    30 1   
    52    28    52 1   
    53    30    31 1   
    54    30    32 1   
    55    30    33 1   
    56    31    53 1   
    57    31    54 1   
    58    31    55 1   
    59    32    56 1   
    60    32    57 1   
    61    32    58 1   
    62    33    59 1   
    63    33    60 1   
    64    33    61 1   
@<TRIPOS>SUBSTRUCTURE
     1 NVW         1 TEMP              0 ****  ****    0 ROOT
