@<TRIPOS>MOLECULE
NVW
   61    64     1     0     0
SMALL
No Charge or Current Charge


@<TRIPOS>ATOM
      1 N1          -3.3000     1.9940     0.2610 nb         1 NVW      -0.250000
      2 C1          -1.9930    -0.3990     0.0100 ca         1 NVW       0.486900
      3 N2          -1.2910     0.7420     0.0300 nb         1 NVW      -0.270000
      4 C2          -1.9590     1.9000     0.1680 cp         1 NVW       0.298500
      5 C3          -1.1530     3.1750     0.2200 cp         1 NVW      -0.172500
      6 N3          -1.2660    -1.5620    -0.2050 nu         1 NVW      -0.927900
      7 C4           0.2690     3.1580     0.1260 ca         1 NVW      -0.055500
      8 C5           1.0180     4.3460     0.1770 ca         1 NVW      -0.131000
      9 C6           0.3730     5.5830     0.3210 ca         1 NVW      -0.084000
     10 C7          -1.0250     5.6300     0.4160 ca         1 NVW      -0.131000
     11 C8          -1.7800     4.4450     0.3670 ca         1 NVW      -0.055500
     12 C9          -4.0180     0.8570     0.2290 ca         1 NVW       0.251300
     13 C10         -3.3850    -0.3930     0.1190 ca         1 NVW      -0.449500
     14 S1          -4.3160    -1.9050     0.1030 sy         1 NVW       1.065500
     15 C11         -6.0360    -1.4180     0.3570 c6         1 NVW      -0.301400
     16 C12         -6.3600    -0.0770    -0.3280 c6         1 NVW      -0.057400
     17 C13         -5.5330     1.0560     0.3160 c6         1 NVW      -0.155700
     18 O1          -4.1920    -2.4630    -1.2490 o          1 NVW      -0.530000
     19 O2          -3.9010    -2.7020     1.2630 o          1 NVW      -0.530000
     20 C14          0.0910    -1.8830    -0.0900 ca         1 NVW       0.289000
     21 C15          0.9370    -1.2260     0.8240 ca         1 NVW      -0.112000
     22 C16          1.9790    -3.2590    -0.8030 ca         1 NVW      -0.081000
     23 C17          0.6190    -2.9100    -0.8910 ca         1 NVW      -0.112000
     24 C18          2.8260    -2.5890     0.0990 ca         1 NVW      -0.069300
     25 C19          2.2960    -1.5730     0.9160 ca         1 NVW      -0.081000
     26 C20          4.3050    -2.9500     0.1870 c3         1 NVW      -0.117100
     27 C21          5.1430    -1.9610    -0.6300 c          1 NVW       0.601100
     28 N4           5.7610    -0.9780     0.1230 ns         1 NVW      -0.515900
     29 O3           5.2330    -2.0380    -1.8470 o          1 NVW      -0.591100
     30 C22          6.5830     0.1370    -0.3660 c3         1 NVW       0.141400
     31 C23          5.7540     1.0510    -1.3020 c3         1 NVW      -0.103767
     32 C24          7.0230     0.9500     0.8730 c3         1 NVW      -0.103767
     33 C25          7.8420    -0.3930    -1.0960 c3         1 NVW      -0.103767
     34 H1          -1.8200    -2.2940    -0.6430 hn         1 NVW       0.515000
     35 H2           0.8050     2.2180     0.0130 ha         1 NVW       0.137000
     36 H3           2.1030     4.3060     0.1030 ha         1 NVW       0.116500
     37 H4           0.9550     6.5020     0.3600 ha         1 NVW       0.112000
     38 H5          -1.5290     6.5880     0.5290 ha         1 NVW       0.116500
     39 H6          -2.8620     4.5220     0.4440 ha         1 NVW       0.137000
     40 H7          -6.6460    -2.2410    -0.0350 h1         1 NVW       0.109200
     41 H8          -6.1710    -1.3480     1.4430 h1         1 NVW       0.109200
     42 H9          -6.1560    -0.1340    -1.4080 hc         1 NVW       0.068200
     43 H10         -7.4320     0.1440    -0.2240 hc         1 NVW       0.068200
     44 H11         -5.8160     1.1640     1.3720 hc         1 NVW       0.081700
     45 H12         -5.8070     2.0060    -0.1640 hc         1 NVW       0.081700
     46 H13          0.5440    -0.4530     1.4770 ha         1 NVW       0.126500
     47 H14          2.3720    -4.0470    -1.4420 ha         1 NVW       0.114000
     48 H15         -0.0210    -3.4340    -1.5960 ha         1 NVW       0.126500
     49 H16          2.9350    -1.0510     1.6250 ha         1 NVW       0.114000
     50 H17          4.6140    -2.9200     1.2390 hc         1 NVW       0.061200
     51 H18          4.4660    -3.9590    -0.2090 hc         1 NVW       0.061200
     52 H19          5.6040    -1.0300     1.1210 hn         1 NVW       0.305500
     53 H20          4.8370     1.3900    -0.8040 hc         1 NVW       0.044144
     54 H21          6.3310     1.9390    -1.5880 hc         1 NVW       0.044144
     55 H22          5.4680     0.5340    -2.2240 hc         1 NVW       0.044144
     56 H23          7.6080     0.3290     1.5630 hc         1 NVW       0.044144
     57 H24          7.6440     1.8060     0.5810 hc         1 NVW       0.044144
     58 H25          6.1530     1.3360     1.4190 hc         1 NVW       0.044144
     59 H26          7.5820    -0.9270    -2.0170 hc         1 NVW       0.044144
     60 H27          8.5070     0.4350    -1.3730 hc         1 NVW       0.044144
     61 H28          8.4060    -1.0790    -0.4530 hc         1 NVW       0.044144
@<TRIPOS>BOND
     1     1     4 ar  
     2     1    12 ar  
     3     2     3 ar  
     4     2     6 1   
     5     2    13 ar  
     6     3     4 ar  
     7     4     5 1   
     8     5     7 ar  
     9     5    11 ar  
    10     6    20 1   
    11     6    34 1   
    12     7     8 ar  
    13     7    35 1   
    14     8     9 ar  
    15     8    36 1   
    16     9    10 ar  
    17     9    37 1   
    18    10    11 ar  
    19    10    38 1   
    20    11    39 1   
    21    12    13 ar  
    22    12    17 1   
    23    13    14 1   
    24    14    15 1   
    25    14    18 2   
    26    14    19 2   
    27    15    16 1   
    28    15    40 1   
    29    15    41 1   
    30    16    17 1   
    31    16    42 1   
    32    16    43 1   
    33    17    44 1   
    34    17    45 1   
    35    20    21 ar  
    36    20    23 ar  
    37    21    25 ar  
    38    21    46 1   
    39    22    23 ar  
    40    22    24 ar  
    41    22    47 1   
    42    23    48 1   
    43    24    25 ar  
    44    24    26 1   
    45    25    49 1   
    46    26    27 1   
    47    26    50 1   
    48    26    51 1   
    49    27    28 1   
    50    27    29 2   
    51    28    30 1   
    52    28    52 1   
    53    30    31 1   
    54    30    32 1   
    55    30    33 1   
    56    31    53 1   
    57    31    54 1   
    58    31    55 1   
    59    32    56 1   
    60    32    57 1   
    61    32    58 1   
    62    33    59 1   
    63    33    60 1   
    64    33    61 1   
@<TRIPOS>SUBSTRUCTURE
     1 NVW         1 TEMP              0 ****  ****    0 ROOT
