@<TRIPOS>MOLECULE
NVX
   41    44     1     0     0
SMALL
abcg2


@<TRIPOS>ATOM
      1 CAK         -2.3770     0.3160    -1.2430 ca         1 NVX      -0.092000
      2 CAV         -3.4910    -0.5020    -1.0170 ca         1 NVX       0.182400
      3 NAO         -4.0370    -1.1810    -2.0850 nc         1 NVX      -0.618100
      4 CAI         -5.0560    -1.9180    -1.8390 cd         1 NVX       0.500800
      5 NAP         -5.6230    -2.0740    -0.6170 ns         1 NVX      -0.430400
      6 CAU         -5.1700    -1.4510     0.5250 c          1 NVX       0.575600
      7 OAB         -5.7140    -1.6210     1.6020 o          1 NVX      -0.535000
      8 CAW         -4.0090    -0.6040     0.2830 ca         1 NVX      -0.202600
      9 CAH         -3.4090     0.1070     1.3270 ca         1 NVX      -0.041000
     10 CAG         -2.3150     0.9030     1.0830 ca         1 NVX      -0.133000
     11 CAT         -1.7820     1.0180    -0.2130 ca         1 NVX      -0.034300
     12 CAY         -0.5910     1.8900    -0.4770 c5         1 NVX      -0.057400
     13 CAM         -0.7550     3.3690    -0.0780 c5         1 NVX       0.146800
     14 NAN          0.5940     3.8920     0.0030 n7         1 NVX      -0.831400
     15 CAL          1.3720     2.8430     0.6360 c5         1 NVX       0.152800
     16 CAX          0.6730     1.4780     0.2940 c5         1 NVX      -0.198700
     17 CAQ          1.5890     0.5610    -0.4750 c          1 NVX       0.590700
     18 OAA          1.4590     0.3620    -1.6640 o          1 NVX      -0.515100
     19 CAS          2.7140    -0.0860     0.2690 ca         1 NVX      -0.168600
     20 CAJ          3.5950    -0.8980    -0.4470 ca         1 NVX      -0.051000
     21 CAR          4.6460    -1.5070     0.2100 ca         1 NVX       0.105000
     22 CL           5.7360    -2.5130    -0.6850 cl         1 NVX      -0.194000
     23 CAE          4.8500    -1.3280     1.5710 ca         1 NVX      -0.077000
     24 CAD          3.9740    -0.5190     2.2780 ca         1 NVX      -0.116000
     25 CAF          2.9120     0.0990     1.6350 ca         1 NVX      -0.074000
     26 HAK         -1.9870     0.3860    -2.2520 ha         1 NVX       0.140000
     27 HAI         -5.5280    -2.4760    -2.6390 h5         1 NVX       0.047800
     28 HAP         -6.4300    -2.6790    -0.5360 hn         1 NVX       0.331500
     29 HAH         -3.8090     0.0260     2.3290 ha         1 NVX       0.136000
     30 HAG         -1.8620     1.4430     1.9050 ha         1 NVX       0.117000
     31 HAY         -0.3770     1.8630    -1.5480 hc         1 NVX       0.080700
     32 HAM1        -1.3550     3.9300    -0.7950 h1         1 NVX       0.062700
     33 HAM2        -1.2410     3.4550     0.8990 h1         1 NVX       0.062700
     34 HAX          0.3930     0.9800     1.2260 hc         1 NVX       0.079700
     35 HAN          0.9420     4.0460    -0.9360 hn         1 NVX       0.411000
     36 HAL1         2.4120     2.8920     0.3120 h1         1 NVX       0.058700
     37 HAL2         1.3680     2.9770     1.7200 h1         1 NVX       0.058700
     38 HAJ          3.4530    -1.0500    -1.5080 ha         1 NVX       0.150000
     39 HAF          2.2440     0.7180     2.2190 ha         1 NVX       0.119000
     40 HAE          5.6780    -1.8110     2.0720 ha         1 NVX       0.132000
     41 HAD          4.1230    -0.3720     3.3390 ha         1 NVX       0.123000
@<TRIPOS>BOND
     1     1     2 ar  
     2     1    11 ar  
     3     1    26 1   
     4     2     3 1   
     5     2     8 ar  
     6     3     4 2   
     7     4     5 1   
     8     4    27 1   
     9     5     6 1   
    10     5    28 1   
    11     6     7 2   
    12     6     8 1   
    13     8     9 ar  
    14     9    10 ar  
    15     9    29 1   
    16    10    11 ar  
    17    10    30 1   
    18    11    12 1   
    19    12    13 1   
    20    12    16 1   
    21    12    31 1   
    22    13    14 1   
    23    13    32 1   
    24    13    33 1   
    25    14    15 1   
    26    14    35 1   
    27    15    16 1   
    28    15    36 1   
    29    15    37 1   
    30    16    17 1   
    31    16    34 1   
    32    17    18 2   
    33    17    19 1   
    34    19    20 ar  
    35    19    25 ar  
    36    20    21 ar  
    37    20    38 1   
    38    21    22 1   
    39    21    23 ar  
    40    23    24 ar  
    41    23    40 1   
    42    24    25 ar  
    43    24    41 1   
    44    25    39 1   
@<TRIPOS>SUBSTRUCTURE
     1 NVX         1 TEMP              0 ****  ****    0 ROOT
