@<TRIPOS>MOLECULE
NVX
   41    44     1     0     0
SMALL
No Charge or Current Charge


@<TRIPOS>ATOM
      1 CAK         -2.2050     0.1430    -1.2300 ca         1 NVX      -0.092000
      2 CAV         -3.3130    -0.6630    -0.9040 ca         1 NVX       0.182400
      3 NAO         -3.8170    -1.5100    -1.9080 nc         1 NVX      -0.618100
      4 CAI         -4.8670    -2.2370    -1.5130 cd         1 NVX       0.500800
      5 NAP         -5.4380    -2.2050    -0.2720 ns         1 NVX      -0.430400
      6 CAU         -5.0140    -1.4220     0.7440 c          1 NVX       0.575600
      7 OAB         -5.5590    -1.4280     1.8370 o          1 NVX      -0.535000
      8 CAW         -3.8470    -0.5740     0.3970 ca         1 NVX      -0.202600
      9 CAH         -3.2800     0.3020     1.3430 ca         1 NVX      -0.041000
     10 CAG         -2.1760     1.0950     0.9970 ca         1 NVX      -0.133000
     11 CAT         -1.6220     1.0260    -0.2990 ca         1 NVX      -0.034300
     12 CAY         -0.4110     1.8730    -0.7220 c5         1 NVX      -0.057400
     13 CAM         -0.7900     3.3780    -0.5710 c5         1 NVX       0.146800
     14 NAN          0.4550     3.9940    -0.0670 n7         1 NVX      -0.831400
     15 CAL          0.8810     3.0630     0.9950 c5         1 NVX       0.152800
     16 CAX          0.7530     1.6700     0.3210 c5         1 NVX      -0.198700
     17 CAQ          2.0930     1.3640    -0.4090 c          1 NVX       0.590700
     18 OAA          2.5240     1.9570    -1.3920 o          1 NVX      -0.515100
     19 CAS          2.8520     0.2250     0.2340 ca         1 NVX      -0.168600
     20 CAJ          3.5250    -0.7000    -0.5950 ca         1 NVX      -0.051000
     21 CAR          4.2530    -1.7630    -0.0360 ca         1 NVX       0.105000
     22 Cl           5.0740    -2.9120    -1.0860 cl         1 NVX      -0.194000
     23 CAE          4.3300    -1.9110     1.3570 ca         1 NVX      -0.077000
     24 CAD          3.6810    -0.9870     2.1940 ca         1 NVX      -0.116000
     25 CAF          2.9510     0.0780     1.6390 ca         1 NVX      -0.074000
     26 HAK         -1.7910     0.0750    -2.2320 ha         1 NVX       0.140000
     27 HAI         -5.3600    -2.9340    -2.1800 h5         1 NVX       0.047800
     28 HAP         -6.2310    -2.7960    -0.0730 hn         1 NVX       0.331500
     29 HAH         -3.6920     0.3700     2.3480 ha         1 NVX       0.136000
     30 HAG         -1.7540     1.7630     1.7430 ha         1 NVX       0.117000
     31 HAY         -0.0910     1.6530    -1.7480 hc         1 NVX       0.080700
     32 HAM1        -1.1120     3.8180    -1.5260 h1         1 NVX       0.062700
     33 HAM2        -1.6060     3.5320     0.1500 h1         1 NVX       0.062700
     34 HAX          0.5440     0.8920     1.0620 hc         1 NVX       0.079700
     35 HAN          1.1560     3.9570    -0.8200 hn         1 NVX       0.411000
     36 HAL1         1.9020     3.2740     1.3470 h1         1 NVX       0.058700
     37 HAL2         0.2120     3.1420     1.8640 h1         1 NVX       0.058700
     38 HAJ          3.4780    -0.6000    -1.6780 ha         1 NVX       0.150000
     39 HAF          2.4770     0.7920     2.3100 ha         1 NVX       0.119000
     40 HAE          4.8950    -2.7340     1.7870 ha         1 NVX       0.132000
     41 HAD          3.7500    -1.0940     3.2750 ha         1 NVX       0.123000
@<TRIPOS>BOND
     1     1     2 ar  
     2     1    11 ar  
     3     1    26 1   
     4     2     3 1   
     5     2     8 ar  
     6     3     4 2   
     7     4     5 1   
     8     4    27 1   
     9     5     6 1   
    10     5    28 1   
    11     6     7 2   
    12     6     8 1   
    13     8     9 ar  
    14     9    10 ar  
    15     9    29 1   
    16    10    11 ar  
    17    10    30 1   
    18    11    12 1   
    19    12    13 1   
    20    12    16 1   
    21    12    31 1   
    22    13    14 1   
    23    13    32 1   
    24    13    33 1   
    25    14    15 1   
    26    14    35 1   
    27    15    16 1   
    28    15    36 1   
    29    15    37 1   
    30    16    17 1   
    31    16    34 1   
    32    17    18 2   
    33    17    19 1   
    34    19    20 ar  
    35    19    25 ar  
    36    20    21 ar  
    37    20    38 1   
    38    21    22 1   
    39    21    23 ar  
    40    23    24 ar  
    41    23    40 1   
    42    24    25 ar  
    43    24    41 1   
    44    25    39 1   
@<TRIPOS>SUBSTRUCTURE
     1 NVX         1 TEMP              0 ****  ****    0 ROOT
