@<TRIPOS>MOLECULE
NVY
   35    36     1     0     0
SMALL
bcc


@<TRIPOS>ATOM
      1 N1           3.3400    -0.0850     0.2900 n3         1 NVY      -0.721600
      2 C4           1.5680     1.1400    -0.8970 c6         1 NVY      -0.095900
      3 C5           0.5270     0.1220    -0.4550 c6         1 NVY       0.217500
      4 C6           0.9910    -0.5300     0.8470 c6         1 NVY      -0.095900
      5 C7           2.3890    -1.1050     0.6920 c6         1 NVY       0.169800
      6 C8          -1.9340     0.0470    -0.2180 ca         1 NVY       0.147600
      7 C10         -3.2920    -1.9570    -0.4410 ca         1 NVY      -0.101000
      8 C13         -3.1000     0.6880     0.2230 ca         1 NVY       0.051900
      9 C1           5.7660     0.4600     0.1820 c3         1 NVY      -0.090100
     10 C11         -4.4230    -1.2850    -0.0050 ca         1 NVY      -0.157000
     11 C12         -4.3170     0.0610     0.3320 ca         1 NVY      -0.123000
     12 C2           4.6930    -0.6140     0.2620 c3         1 NVY       0.169800
     13 C3           2.9500     0.5090    -0.9760 c6         1 NVY       0.169800
     14 C9          -2.0680    -1.3090    -0.5420 ca         1 NVY      -0.185000
     15 F1          -3.0020     1.9950     0.5540 f          1 NVY      -0.156900
     16 N2          -0.7690     0.7620    -0.3570 nu         1 NVY      -0.742600
     17 H2           1.3010     1.5550    -1.8710 hc         1 NVY       0.054700
     18 H3           1.5920     1.9710    -0.1830 hc         1 NVY       0.054700
     19 H4           0.4680    -0.6470    -1.2340 h1         1 NVY       0.059700
     20 H5           0.9920     0.2240     1.6410 hc         1 NVY       0.054700
     21 H6           0.3060    -1.3230     1.1540 hc         1 NVY       0.054700
     22 H7           2.3600    -1.9410    -0.0330 h1         1 NVY       0.032200
     23 H8           2.7160    -1.5320     1.6430 h1         1 NVY       0.032200
     24 H9          -3.3520    -3.0050    -0.7030 ha         1 NVY       0.130000
     25 H10          5.7490     1.0050    -0.7610 hc         1 NVY       0.037700
     26 H11          5.6520     1.1810     0.9930 hc         1 NVY       0.037700
     27 H12          6.7530     0.0050     0.2720 hc         1 NVY       0.037700
     28 H13         -5.3760    -1.7910     0.0740 ha         1 NVY       0.136000
     29 H14         -5.1760     0.6200     0.6800 ha         1 NVY       0.145000
     30 H15          4.8410    -1.1820     1.1830 h1         1 NVY       0.028200
     31 H16          4.8280    -1.3340    -0.5640 h1         1 NVY       0.028200
     32 H17          3.6710     1.2800    -1.2550 h1         1 NVY       0.032200
     33 H18          2.9630    -0.2400    -1.7890 h1         1 NVY       0.032200
     34 H19         -1.2080    -1.8700    -0.8830 ha         1 NVY       0.133000
     35 H20         -0.7490     1.6350     0.1490 hn         1 NVY       0.418800
@<TRIPOS>BOND
     1     1     5 1   
     2     1    12 1   
     3     1    13 1   
     4     2     3 1   
     5     2    13 1   
     6     2    17 1   
     7     2    18 1   
     8     3     4 1   
     9     3    16 1   
    10     3    19 1   
    11     4     5 1   
    12     4    20 1   
    13     4    21 1   
    14     5    22 1   
    15     5    23 1   
    16     6     8 ar  
    17     6    14 ar  
    18     6    16 1   
    19     7    10 ar  
    20     7    14 ar  
    21     7    24 1   
    22     8    11 ar  
    23     8    15 1   
    24     9    12 1   
    25     9    25 1   
    26     9    26 1   
    27     9    27 1   
    28    10    11 ar  
    29    10    28 1   
    30    11    29 1   
    31    12    30 1   
    32    12    31 1   
    33    13    32 1   
    34    13    33 1   
    35    14    34 1   
    36    16    35 1   
@<TRIPOS>SUBSTRUCTURE
     1 NVY         1 TEMP              0 ****  ****    0 ROOT
