@<TRIPOS>MOLECULE
NVY
   35    36     1     0     0
SMALL
No Charge or Current Charge


@<TRIPOS>ATOM
      1 N1           3.3410    -0.0680     0.3310 n3         1 NVY      -0.721600
      2 C4           1.6020     1.1410    -1.0230 c6         1 NVY      -0.095900
      3 C5           0.5430     0.0910    -0.6270 c6         1 NVY       0.217500
      4 C6           0.9030    -0.5170     0.7470 c6         1 NVY      -0.095900
      5 C7           2.3360    -1.0950     0.7220 c6         1 NVY       0.169800
      6 C8          -1.9900     0.0410    -0.3300 ca         1 NVY       0.286000
      7 C10         -3.3930    -1.9500    -0.5470 ca         1 NVY      -0.083000
      8 C13         -3.0310     0.6700     0.3980 ca         1 NVY       0.087000
      9 C1           5.8330     0.4680     0.2740 c3         1 NVY      -0.090100
     10 C11         -4.4160    -1.3200     0.1810 ca         1 NVY      -0.139000
     11 C12         -4.2360    -0.0080     0.6530 ca         1 NVY      -0.105000
     12 C2           4.7250    -0.5940     0.4290 c3         1 NVY       0.169800
     13 C3           3.0180     0.5220    -1.0020 c6         1 NVY       0.169800
     14 C9          -2.1870    -1.2720    -0.8030 ca         1 NVY      -0.167000
     15 F1          -2.8780     1.9350     0.8620 f          1 NVY      -0.192000
     16 N2          -0.7870     0.7250    -0.5830 nu         1 NVY      -0.936200
     17 H2           1.3880     1.5340    -2.0250 hc         1 NVY       0.054700
     18 H3           1.5700     1.9950    -0.3320 hc         1 NVY       0.054700
     19 H4           0.5610    -0.7080    -1.3840 h1         1 NVY       0.059700
     20 H5           0.8310     0.2480     1.5320 hc         1 NVY       0.054700
     21 H6           0.1940    -1.3120     1.0110 hc         1 NVY       0.054700
     22 H7           2.3680    -1.9440     0.0220 h1         1 NVY       0.032200
     23 H8           2.5680    -1.4940     1.7210 h1         1 NVY       0.032200
     24 H9          -3.5350    -2.9640    -0.9160 ha         1 NVY       0.112000
     25 H10          5.8670     0.8660    -0.7460 hc         1 NVY       0.037700
     26 H11          5.6720     1.2990     0.9710 hc         1 NVY       0.037700
     27 H12          6.8110     0.0240     0.4920 hc         1 NVY       0.037700
     28 H13         -5.3480    -1.8460     0.3770 ha         1 NVY       0.118000
     29 H14         -5.0260     0.4840     1.2150 ha         1 NVY       0.127000
     30 H15          4.8620    -1.0620     1.4130 h1         1 NVY       0.028200
     31 H16          4.8840    -1.3790    -0.3230 h1         1 NVY       0.028200
     32 H17          3.7350     1.3140    -1.2630 h1         1 NVY       0.032200
     33 H18          3.0870    -0.2480    -1.7850 h1         1 NVY       0.032200
     34 H19         -1.4120    -1.7720    -1.3750 ha         1 NVY       0.115000
     35 H20         -0.8100     1.7010    -0.2820 hn         1 NVY       0.474000
@<TRIPOS>BOND
     1     1     5 1   
     2     1    12 1   
     3     1    13 1   
     4     2     3 1   
     5     2    13 1   
     6     2    17 1   
     7     2    18 1   
     8     3     4 1   
     9     3    16 1   
    10     3    19 1   
    11     4     5 1   
    12     4    20 1   
    13     4    21 1   
    14     5    22 1   
    15     5    23 1   
    16     6     8 ar  
    17     6    14 ar  
    18     6    16 1   
    19     7    10 ar  
    20     7    14 ar  
    21     7    24 1   
    22     8    11 ar  
    23     8    15 1   
    24     9    12 1   
    25     9    25 1   
    26     9    26 1   
    27     9    27 1   
    28    10    11 ar  
    29    10    28 1   
    30    11    29 1   
    31    12    30 1   
    32    12    31 1   
    33    13    32 1   
    34    13    33 1   
    35    14    34 1   
    36    16    35 1   
@<TRIPOS>SUBSTRUCTURE
     1 NVY         1 TEMP              0 ****  ****    0 ROOT
