@<TRIPOS>MOLECULE
NVZ
   36    37     1     0     0
SMALL
No Charge or Current Charge


@<TRIPOS>ATOM
      1 N1           3.3790    -0.3080    -0.0890 n          1 NVZ      -0.401400
      2 S1           0.6310     1.1540    -1.1220 ss         1 NVZ      -0.380000
      3 C2           0.1500     0.7600     0.6170 c5         1 NVZ       0.064300
      4 N2           1.5160    -1.2660     0.6750 ns         1 NVZ      -0.513900
      5 C3           2.6310    -1.4650    -0.0680 c          1 NVZ       0.625000
      6 O3           2.9150    -2.5310    -0.5850 o          1 NVZ      -0.525000
      7 C4           1.4260     0.0860     1.2420 c5         1 NVZ       0.106700
      8 C5           2.7130     0.7990     0.6450 c5         1 NVZ       0.095700
      9 C6           2.2180     1.8150    -0.4470 c5         1 NVZ       0.025600
     10 C7          -1.1650    -0.0630     0.6780 c3         1 NVZ      -0.063400
     11 C8          -2.4250     0.7200     0.2380 c3         1 NVZ      -0.082400
     12 C9          -3.7230    -0.1110     0.3490 c3         1 NVZ      -0.053400
     13 C10         -4.9860     0.6710    -0.0880 c3         1 NVZ      -0.205400
     14 C11         -6.2360    -0.2160     0.0530 c          1 NVZ       0.717000
     15 O11         -6.8250    -0.2180     1.1230 o          1 NVZ      -0.741000
     16 O12         -6.5570    -0.9140    -0.8970 o          1 NVZ      -0.741000
     17 C17          4.6660    -0.1640    -0.6340 c          1 NVZ       0.624100
     18 C18          5.5950     0.9010    -0.0410 c3         1 NVZ      -0.184100
     19 O19          5.0880    -0.9190    -1.4980 o          1 NVZ      -0.530100
     20 H2          -0.0320     1.7110     1.1370 h1         1 NVZ       0.070700
     21 HN2          0.8690    -2.0320     0.8130 hn         1 NVZ       0.354500
     22 H4           1.4100     0.0810     2.3400 h1         1 NVZ       0.065700
     23 H5           3.3450     1.2570     1.4160 h1         1 NVZ       0.063700
     24 H6           2.9470     1.9670    -1.2540 h1         1 NVZ       0.073700
     25 H6A          2.0200     2.7940     0.0080 h1         1 NVZ       0.073700
     26 H7          -1.0780    -0.9600     0.0540 hc         1 NVZ       0.049200
     27 H7A         -1.3180    -0.4130     1.7060 hc         1 NVZ       0.049200
     28 H8          -2.5200     1.6220     0.8550 hc         1 NVZ       0.033700
     29 H8A         -2.3030     1.0540    -0.8000 hc         1 NVZ       0.033700
     30 H9          -3.6270    -1.0140    -0.2680 hc         1 NVZ       0.039700
     31 H9A         -3.8480    -0.4460     1.3870 hc         1 NVZ       0.039700
     32 H10         -5.0520     1.5350     0.5850 hc         1 NVZ       0.016700
     33 H10A        -4.8230     0.9410    -1.1380 hc         1 NVZ       0.016700
     34 H18          5.6060     0.8030     1.0500 hc         1 NVZ       0.060367
     35 H18A         6.6080     0.8500    -0.4570 hc         1 NVZ       0.060367
     36 H18B         5.1590     1.8950    -0.1900 hc         1 NVZ       0.060367
@<TRIPOS>BOND
     1     1     5 1   
     2     1     8 1   
     3     1    17 1   
     4     2     3 1   
     5     2     9 1   
     6     3     7 1   
     7     3    10 1   
     8     3    20 1   
     9     4     5 1   
    10     4     7 1   
    11     4    21 1   
    12     5     6 2   
    13     7     8 1   
    14     7    22 1   
    15     8     9 1   
    16     8    23 1   
    17     9    24 1   
    18     9    25 1   
    19    10    11 1   
    20    10    26 1   
    21    10    27 1   
    22    11    12 1   
    23    11    28 1   
    24    11    29 1   
    25    12    13 1   
    26    12    30 1   
    27    12    31 1   
    28    13    14 1   
    29    13    32 1   
    30    13    33 1   
    31    14    15 1   
    32    14    16 1   
    33    17    18 1   
    34    17    19 2   
    35    18    34 1   
    36    18    35 1   
    37    18    36 1   
@<TRIPOS>SUBSTRUCTURE
     1 NVZ         1 TEMP              0 ****  ****    0 ROOT
