@<TRIPOS>MOLECULE
NVZ
   36    37     1     0     0
SMALL
abcg2


@<TRIPOS>ATOM
      1 N1           3.4210    -0.3640     0.0250 n          1 NVZ      -0.401400
      2 S1           0.5870     1.1330    -1.1530 ss         1 NVZ      -0.380000
      3 C2           0.1310     0.7370     0.5650 c5         1 NVZ       0.064300
      4 N2           1.5460    -1.2920     0.7170 ns         1 NVZ      -0.513900
      5 C3           2.7000    -1.5690     0.0840 c          1 NVZ       0.625000
      6 O3           3.0570    -2.6480    -0.3320 o          1 NVZ      -0.525000
      7 C4           1.3820     0.0680     1.1430 c5         1 NVZ       0.106700
      8 C5           2.6380     0.7510     0.5430 c5         1 NVZ       0.095700
      9 C6           2.1880     1.7260    -0.5550 c5         1 NVZ       0.025600
     10 C7          -1.1410    -0.0870     0.6660 c3         1 NVZ      -0.063400
     11 C8          -2.3840     0.6730     0.2140 c3         1 NVZ      -0.082400
     12 C9          -3.6630    -0.1430     0.3530 c3         1 NVZ      -0.053400
     13 C10         -4.8970     0.6430    -0.0610 c3         1 NVZ      -0.205400
     14 C11         -6.2370    -0.1090     0.0180 c          1 NVZ       0.717000
     15 O11         -6.2500    -1.2230     0.5780 o          1 NVZ      -0.741000
     16 O12         -7.2210     0.4750    -0.4850 o          1 NVZ      -0.741000
     17 C17          4.7470    -0.2690    -0.3500 c          1 NVZ       0.624100
     18 C18          5.4050     1.0630    -0.0970 c3         1 NVZ      -0.184100
     19 O19          5.3510    -1.2000    -0.8330 o          1 NVZ      -0.530100
     20 H2          -0.0110     1.6830     1.0990 h1         1 NVZ       0.070700
     21 HN2          0.8970    -2.0260     0.9480 hn         1 NVZ       0.354500
     22 H4           1.3610     0.1380     2.2340 h1         1 NVZ       0.065700
     23 H5           3.1930     1.2850     1.3130 h1         1 NVZ       0.063700
     24 H6           2.8880     1.7800    -1.3860 h1         1 NVZ       0.073700
     25 H6A          2.0790     2.7270    -0.1370 h1         1 NVZ       0.073700
     26 H7          -1.0370    -1.0060     0.0820 hc         1 NVZ       0.049200
     27 H7A         -1.2680    -0.3890     1.7110 hc         1 NVZ       0.049200
     28 H8          -2.4690     1.5940     0.8010 hc         1 NVZ       0.033700
     29 H8A         -2.2660     0.9880    -0.8280 hc         1 NVZ       0.033700
     30 H9          -3.5800    -1.0490    -0.2540 hc         1 NVZ       0.039700
     31 H9A         -3.7690    -0.4800     1.3880 hc         1 NVZ       0.039700
     32 H10         -4.9790     1.5410     0.5630 hc         1 NVZ       0.016700
     33 H10A        -4.7710     1.0200    -1.0830 hc         1 NVZ       0.016700
     34 H18          5.3560     1.3370     0.9580 hc         1 NVZ       0.060367
     35 H18A         6.4490     1.0010    -0.3900 hc         1 NVZ       0.060367
     36 H18B         4.9400     1.8700    -0.6640 hc         1 NVZ       0.060367
@<TRIPOS>BOND
     1     1     5 1   
     2     1     8 1   
     3     1    17 1   
     4     2     3 1   
     5     2     9 1   
     6     3     7 1   
     7     3    10 1   
     8     3    20 1   
     9     4     5 1   
    10     4     7 1   
    11     4    21 1   
    12     5     6 2   
    13     7     8 1   
    14     7    22 1   
    15     8     9 1   
    16     8    23 1   
    17     9    24 1   
    18     9    25 1   
    19    10    11 1   
    20    10    26 1   
    21    10    27 1   
    22    11    12 1   
    23    11    28 1   
    24    11    29 1   
    25    12    13 1   
    26    12    30 1   
    27    12    31 1   
    28    13    14 1   
    29    13    32 1   
    30    13    33 1   
    31    14    15 1   
    32    14    16 1   
    33    17    18 1   
    34    17    19 2   
    35    18    34 1   
    36    18    35 1   
    37    18    36 1   
@<TRIPOS>SUBSTRUCTURE
     1 NVZ         1 TEMP              0 ****  ****    0 ROOT
