@<TRIPOS>MOLECULE
NW0
   34    35     1     0     0
SMALL
abcg2


@<TRIPOS>ATOM
      1 N1           8.0190    -0.2360    20.9620 ns         1 NW0      -0.149000
      2 C4           7.5520     0.9820    18.8740 ca         1 NW0       0.322900
      3 C5           7.1320     0.3840    20.0660 ca         1 NW0      -0.075000
      4 C6           9.3720    -0.0920    21.0680 c          1 NW0       0.602100
      5 C7          10.0040    -0.9510    22.1470 c3         1 NW0      -0.155400
      6 C8          11.1480    -0.2280    22.8690 c3         1 NW0      -0.022100
      7 C10         12.8960    -1.9160    23.5540 ca         1 NW0      -0.104000
      8 C13         11.8880    -2.0330    26.1160 ca         1 NW0       0.125000
      9 CL          11.2420    -2.0970    27.7470 cl         1 NW0      -0.214000
     10 C12         12.9740    -2.8330    25.7870 ca         1 NW0      -0.101000
     11 C11         13.4740    -2.7640    24.4910 ca         1 NW0      -0.100000
     12 C14         11.3000    -1.1820    25.1920 ca         1 NW0      -0.102000
     13 C9          11.8040    -1.1170    23.8930 ca         1 NW0      -0.077300
     14 O           10.0340     0.6490    20.3520 o          1 NW0      -0.579100
     15 C1           5.7600     0.3800    20.3750 ca         1 NW0      -0.092300
     16 C            5.2370    -0.2500    21.6330 c3         1 NW0      -0.052800
     17 N            6.7130     1.5610    18.0120 nb         1 NW0      -0.644000
     18 C3           5.4120     1.5630    18.3080 ca         1 NW0       0.311900
     19 C2           4.9050     0.9870    19.4640 ca         1 NW0      -0.140000
     20 H1           7.5940    -0.8390    21.6480 hn         1 NW0       0.151000
     21 H2           8.6000     0.9890    18.6190 h4         1 NW0       0.051100
     22 H3           9.2530    -1.2830    22.8660 hc         1 NW0       0.063200
     23 H4          10.3920    -1.8490    21.6540 hc         1 NW0       0.063200
     24 H5          11.8840     0.0940    22.1330 hc         1 NW0       0.066700
     25 H6          10.7540     0.6680    23.3530 hc         1 NW0       0.066700
     26 H7          13.2970    -1.8700    22.5480 ha         1 NW0       0.120000
     27 H8          13.4180    -3.4870    26.5240 ha         1 NW0       0.131000
     28 H9          14.3240    -3.3760    24.2160 ha         1 NW0       0.120000
     29 H10         10.4550    -0.5700    25.4810 ha         1 NW0       0.127000
     30 H11          5.4230    -1.3280    21.6450 hc         1 NW0       0.046367
     31 H12          5.7180     0.1730    22.5180 hc         1 NW0       0.046367
     32 H13          4.1630    -0.0950    21.7180 hc         1 NW0       0.046367
     33 H14          4.7490     2.0400    17.5960 h4         1 NW0       0.022100
     34 H15          3.8410     1.0110    19.6600 ha         1 NW0       0.121000
@<TRIPOS>BOND
     1     1     3 1   
     2     1     4 1   
     3     1    20 1   
     4     2     3 ar  
     5     2    17 ar  
     6     2    21 1   
     7     3    15 ar  
     8     4     5 1   
     9     4    14 2   
    10     5     6 1   
    11     5    22 1   
    12     5    23 1   
    13     6    13 1   
    14     6    24 1   
    15     6    25 1   
    16     7    11 ar  
    17     7    13 ar  
    18     7    26 1   
    19     8     9 1   
    20     8    10 ar  
    21     8    12 ar  
    22    10    11 ar  
    23    10    27 1   
    24    11    28 1   
    25    12    13 ar  
    26    12    29 1   
    27    15    16 1   
    28    15    19 ar  
    29    16    30 1   
    30    16    31 1   
    31    16    32 1   
    32    17    18 ar  
    33    18    19 ar  
    34    18    33 1   
    35    19    34 1   
@<TRIPOS>SUBSTRUCTURE
     1 NW0         1 TEMP              0 ****  ****    0 ROOT
