@<TRIPOS>MOLECULE
NW0
   34    35     1     0     0
SMALL
No Charge or Current Charge


@<TRIPOS>ATOM
      1 N1           8.1480    -0.2510    20.8620 ns         1 NW0      -0.149000
      2 C4           7.5040     1.0910    18.8480 ca         1 NW0       0.322900
      3 C5           7.1810     0.4280    20.0610 ca         1 NW0      -0.075000
      4 C6           9.5100    -0.4650    20.6960 c          1 NW0       0.602100
      5 C7          10.1660    -1.2680    21.8250 c3         1 NW0      -0.155400
      6 C8          11.0550    -0.3720    22.7180 c3         1 NW0      -0.022100
      7 C10         12.9590    -1.7660    23.6680 ca         1 NW0      -0.104000
      8 C13         11.6300    -2.0350    26.1260 ca         1 NW0       0.125000
      9 Cl          10.7960    -2.2050    27.6650 cl         1 NW0      -0.214000
     10 C12         12.8870    -2.6340    25.9410 ca         1 NW0      -0.101000
     11 C11         13.5520    -2.5000    24.7100 ca         1 NW0      -0.100000
     12 C14         11.0370    -1.3010    25.0850 ca         1 NW0      -0.102000
     13 C9          11.6990    -1.1610    23.8500 ca         1 NW0      -0.077300
     14 O           10.1530    -0.0820    19.7260 o          1 NW0      -0.579100
     15 C1           5.8340     0.4490    20.4940 ca         1 NW0      -0.092300
     16 C            5.3930    -0.2330    21.7850 c3         1 NW0      -0.052800
     17 N            6.5900     1.7380    18.0850 nb         1 NW0      -0.644000
     18 C3           5.3080     1.7490    18.5090 ca         1 NW0       0.311900
     19 C2           4.8930     1.1240    19.6950 ca         1 NW0      -0.140000
     20 H1           7.7690    -0.6470    21.7120 hn         1 NW0       0.151000
     21 H2           8.5190     1.1170    18.4610 h4         1 NW0       0.051100
     22 H3           9.3970    -1.7300    22.4560 hc         1 NW0       0.063200
     23 H4          10.7970    -2.0470    21.3820 hc         1 NW0       0.063200
     24 H5          11.8290     0.1030    22.1020 hc         1 NW0       0.066700
     25 H6          10.4490     0.4470    23.1280 hc         1 NW0       0.066700
     26 H7          13.4790    -1.6690    22.7170 ha         1 NW0       0.120000
     27 H8          13.3420    -3.2010    26.7490 ha         1 NW0       0.131000
     28 H9          14.5250    -2.9640    24.5640 ha         1 NW0       0.120000
     29 H10         10.0630    -0.8440    25.2400 ha         1 NW0       0.127000
     30 H11          5.6050    -1.3080    21.7570 hc         1 NW0       0.046367
     31 H12          5.9110     0.1920    22.6540 hc         1 NW0       0.046367
     32 H13          4.3160    -0.1170    21.9580 hc         1 NW0       0.046367
     33 H14          4.5920     2.2760    17.8790 h4         1 NW0       0.022100
     34 H15          3.8460     1.1690    19.9820 ha         1 NW0       0.121000
@<TRIPOS>BOND
     1     1     3 1   
     2     1     4 1   
     3     1    20 1   
     4     2     3 ar  
     5     2    17 ar  
     6     2    21 1   
     7     3    15 ar  
     8     4     5 1   
     9     4    14 2   
    10     5     6 1   
    11     5    22 1   
    12     5    23 1   
    13     6    13 1   
    14     6    24 1   
    15     6    25 1   
    16     7    11 ar  
    17     7    13 ar  
    18     7    26 1   
    19     8     9 1   
    20     8    10 ar  
    21     8    12 ar  
    22    10    11 ar  
    23    10    27 1   
    24    11    28 1   
    25    12    13 ar  
    26    12    29 1   
    27    15    16 1   
    28    15    19 ar  
    29    16    30 1   
    30    16    31 1   
    31    16    32 1   
    32    17    18 ar  
    33    18    19 ar  
    34    18    33 1   
    35    19    34 1   
@<TRIPOS>SUBSTRUCTURE
     1 NW0         1 TEMP              0 ****  ****    0 ROOT
