@<TRIPOS>MOLECULE
NW1
   35    36     1     0     0
SMALL
abcg2


@<TRIPOS>ATOM
      1 N1           2.1750    28.4030     7.2410 nb         1 NW1      -0.393000
      2 C6           1.4920    28.5490     8.3490 ca         1 NW1       0.486300
      3 O6           1.3840    27.5440     9.1970 os         1 NW1      -0.430300
      4 C1           2.0250    26.2820     8.8760 c3         1 NW1       0.173600
      5 C3           1.6660    25.2840     9.9570 c6         1 NW1      -0.070700
      6 C11          0.1610    24.9970    10.0070 c6         1 NW1      -0.070400
      7 C10         -0.1780    23.9420    11.0600 c6         1 NW1      -0.072900
      8 C9           0.6130    22.6520    10.8320 c6         1 NW1      -0.076400
      9 C8           2.1160    22.9290    10.7840 c6         1 NW1      -0.072900
     10 C7           2.4580    23.9890     9.7360 c6         1 NW1      -0.070400
     11 C5           0.8340    29.7780     8.7010 ca         1 NW1      -0.280600
     12 N7           0.1620    29.8200     9.8710 ne         1 NW1       0.053900
     13 O8          -0.4200    30.8890    10.1960 o          1 NW1      -0.341300
     14 C4           0.9740    30.8450     7.7350 ca         1 NW1       0.474900
     15 N9           0.4030    32.0240     7.9520 nv         1 NW1      -1.040900
     16 N3           1.6710    30.6760     6.6090 nb         1 NW1      -0.383000
     17 C2           2.2360    29.4800     6.4130 ca         1 NW1       0.495900
     18 N2           2.9380    29.3090     5.2900 nv         1 NW1      -1.054900
     19 H12          1.6740    25.9510     7.8970 h1         1 NW1       0.054200
     20 H11          3.1020    26.4480     8.8230 h1         1 NW1       0.054200
     21 H3           1.9710    25.7080    10.9220 hc         1 NW1       0.065700
     22 H112        -0.3890    25.9200    10.2040 hc         1 NW1       0.043450
     23 H111        -0.1580    24.6400     9.0200 hc         1 NW1       0.043450
     24 H102         0.0570    24.3370    12.0550 hc         1 NW1       0.041200
     25 H101        -1.2520    23.7350    11.0490 hc         1 NW1       0.041200
     26 H92          0.3880    21.9250    11.6170 hc         1 NW1       0.038700
     27 H91          0.2990    22.2030     9.8830 hc         1 NW1       0.038700
     28 H82          2.4500    23.2780    11.7680 hc         1 NW1       0.041200
     29 H81          2.6650    22.0080    10.5720 hc         1 NW1       0.041200
     30 H72          2.2260    23.5980     8.7380 hc         1 NW1       0.043450
     31 H71          3.5300    24.2040     9.7510 hc         1 NW1       0.043450
     32 H9N3         0.5090    32.7580     7.2690 hn         1 NW1       0.527000
     33 H9N2        -0.1240    32.1470     8.8080 hn         1 NW1       0.527000
     34 H22          3.0250    30.0620     4.6290 hn         1 NW1       0.513000
     35 H21          3.3760    28.4230     5.1010 hn         1 NW1       0.513000
@<TRIPOS>BOND
     1     1     2 ar  
     2     1    17 ar  
     3     2     3 1   
     4     2    11 ar  
     5     3     4 1   
     6     4     5 1   
     7     4    19 1   
     8     4    20 1   
     9     5     6 1   
    10     5    10 1   
    11     5    21 1   
    12     6     7 1   
    13     6    22 1   
    14     6    23 1   
    15     7     8 1   
    16     7    24 1   
    17     7    25 1   
    18     8     9 1   
    19     8    26 1   
    20     8    27 1   
    21     9    10 1   
    22     9    28 1   
    23     9    29 1   
    24    10    30 1   
    25    10    31 1   
    26    11    12 1   
    27    11    14 ar  
    28    12    13 2   
    29    14    15 1   
    30    14    16 ar  
    31    15    32 1   
    32    15    33 1   
    33    16    17 ar  
    34    17    18 1   
    35    18    34 1   
    36    18    35 1   
@<TRIPOS>SUBSTRUCTURE
     1 NW1         1 TEMP              0 ****  ****    0 ROOT
