@<TRIPOS>MOLECULE
NW1
   35    36     1     0     0
SMALL
No Charge or Current Charge


@<TRIPOS>ATOM
      1 N1           2.2240    28.5250     7.1570 nb         1 NW1      -0.393000
      2 C6           1.4340    28.6060     8.2460 ca         1 NW1       0.486300
      3 O6           1.2980    27.5220     9.0880 os         1 NW1      -0.430300
      4 C1           1.9900    26.2860     8.8300 c3         1 NW1       0.173600
      5 C3           1.6320    25.2580     9.9420 c6         1 NW1      -0.070700
      6 C11          0.1110    24.9200     9.9630 c6         1 NW1      -0.070400
      7 C10         -0.2270    23.8890    11.0690 c6         1 NW1      -0.072900
      8 C9           0.6200    22.6020    10.9150 c6         1 NW1      -0.076400
      9 C8           2.1320    22.9290    10.8990 c6         1 NW1      -0.072900
     10 C7           2.4720    23.9580     9.7910 c6         1 NW1      -0.070400
     11 C5           0.7260    29.7840     8.5470 ca         1 NW1      -0.280600
     12 N7          -0.1070    29.8690     9.6780 ne         1 NW1       0.053900
     13 O8           0.3660    30.4600    10.6580 o          1 NW1      -0.341300
     14 C4           0.8860    30.8480     7.6510 ca         1 NW1       0.474900
     15 N9           0.2620    32.0370     7.8100 nv         1 NW1      -1.040900
     16 N3           1.6650    30.7780     6.5740 nb         1 NW1      -0.383000
     17 C2           2.2880    29.6160     6.4010 ca         1 NW1       0.495900
     18 N2           3.0760    29.5280     5.3180 nv         1 NW1      -1.054900
     19 H12          1.7050    25.8730     7.8530 h1         1 NW1       0.054200
     20 H11          3.0770    26.4470     8.8320 h1         1 NW1       0.054200
     21 H3           1.9000    25.7340    10.8960 hc         1 NW1       0.065700
     22 H112        -0.4790    25.8320    10.1280 hc         1 NW1       0.043450
     23 H111        -0.1960    24.5240     8.9850 hc         1 NW1       0.043450
     24 H102        -0.0460    24.3350    12.0570 hc         1 NW1       0.041200
     25 H101        -1.2960    23.6390    11.0300 hc         1 NW1       0.041200
     26 H92          0.3960    21.9090    11.7370 hc         1 NW1       0.038700
     27 H91          0.3420    22.0860     9.9860 hc         1 NW1       0.038700
     28 H82          2.4360    23.3250    11.8780 hc         1 NW1       0.041200
     29 H81          2.7110    22.0090    10.7420 hc         1 NW1       0.041200
     30 H72          2.2900    23.5080     8.8050 hc         1 NW1       0.043450
     31 H71          3.5430    24.1970     9.8310 hc         1 NW1       0.043450
     32 H9N3         0.6240    32.8250     7.2800 hn         1 NW1       0.527000
     33 H9N2        -0.0950    32.2540     8.7370 hn         1 NW1       0.527000
     34 H22          2.9460    30.2250     4.5900 hn         1 NW1       0.513000
     35 H21          3.3520    28.6010     5.0080 hn         1 NW1       0.513000
@<TRIPOS>BOND
     1     1     2 ar  
     2     1    17 ar  
     3     2     3 1   
     4     2    11 ar  
     5     3     4 1   
     6     4     5 1   
     7     4    19 1   
     8     4    20 1   
     9     5     6 1   
    10     5    10 1   
    11     5    21 1   
    12     6     7 1   
    13     6    22 1   
    14     6    23 1   
    15     7     8 1   
    16     7    24 1   
    17     7    25 1   
    18     8     9 1   
    19     8    26 1   
    20     8    27 1   
    21     9    10 1   
    22     9    28 1   
    23     9    29 1   
    24    10    30 1   
    25    10    31 1   
    26    11    12 1   
    27    11    14 ar  
    28    12    13 2   
    29    14    15 1   
    30    14    16 ar  
    31    15    32 1   
    32    15    33 1   
    33    16    17 ar  
    34    17    18 1   
    35    18    34 1   
    36    18    35 1   
@<TRIPOS>SUBSTRUCTURE
     1 NW1         1 TEMP              0 ****  ****    0 ROOT
