@<TRIPOS>MOLECULE
NW2
   61    64     1     0     0
SMALL
abcg2


@<TRIPOS>ATOM
      1 C1          34.2600     8.6380    -4.3770 ca         1 NW2      -0.089300
      2 C2          32.8990     8.4460    -4.1670 ca         1 NW2      -0.099000
      3 C3          32.1370     7.6490    -5.0220 cp         1 NW2      -0.025000
      4 C11         28.5460     8.2970    -4.1120 ca         1 NW2      -0.197300
      5 C12         27.9890     7.0420    -4.3030 ca         1 NW2       0.105100
      6 C13         28.7550     5.9670    -4.7250 ca         1 NW2      -0.137000
      7 C14         30.1070     6.1910    -4.9540 ca         1 NW2      -0.039000
      8 C15         27.4820     9.2130    -3.5720 c5         1 NW2       0.194800
      9 C16         26.2250     8.3520    -3.8450 c5         1 NW2       0.106600
     10 C20         35.0730     9.5050    -3.4430 c3         1 NW2      -0.010400
     11 C21         34.5930    10.9560    -3.4780 c3         1 NW2      -0.083100
     12 C22         35.0640     8.9580    -2.0160 c3         1 NW2      -0.083100
     13 C23         35.4580     3.2220    -6.1670 ca         1 NW2       0.079100
     14 C24         34.4940     2.4450    -5.5430 ca         1 NW2      -0.091600
     15 C25         34.7070     1.0710    -5.4130 ca         1 NW2      -0.120000
     16 C26         35.8450     0.4890    -5.9380 ca         1 NW2      -0.106000
     17 C27         36.8160     1.2630    -6.5660 ca         1 NW2      -0.224000
     18 C28         36.6300     2.6360    -6.6780 ca         1 NW2       0.092100
     19 C29         33.2340     3.0740    -4.9640 c          1 NW2       0.730600
     20 C4          32.7650     7.0470    -6.1110 ca         1 NW2      -0.066000
     21 C5          34.1270     7.2100    -6.3370 ca         1 NW2      -0.056300
     22 C6          34.8590     8.0070    -5.4630 ca         1 NW2      -0.094000
     23 C7          34.7970     6.5460    -7.5110 c3         1 NW2      -0.025100
     24 C8          34.7310     5.0310    -7.4770 c3         1 NW2       0.165600
     25 C9          30.6940     7.4480    -4.7720 cp         1 NW2      -0.066000
     26 C10         29.8910     8.5060    -4.3300 ca         1 NW2      -0.037000
     27 O17         26.6690     6.9970    -4.0320 os         1 NW2      -0.336100
     28 O19         35.3090     4.5750    -6.2580 os         1 NW2      -0.339100
     29 O30         33.1870     3.1500    -3.7260 o          1 NW2      -0.715500
     30 O31         32.3670     3.4210    -5.7890 o          1 NW2      -0.715500
     31 O32         37.5130     3.4830    -7.2440 os         1 NW2      -0.336100
     32 C33         38.6940     2.9450    -7.7960 c3         1 NW2       0.153900
     33 H1          32.4210     8.9050    -3.3080 ha         1 NW2       0.104000
     34 H2          28.3250     4.9830    -4.8610 ha         1 NW2       0.133000
     35 H3          30.7240     5.3520    -5.2580 ha         1 NW2       0.181000
     36 H4          27.4150    10.1420    -4.1420 h1         1 NW2       0.068700
     37 H5          25.5100     8.3750    -3.0220 h1         1 NW2       0.046700
     38 H6          25.7220     8.6770    -4.7590 h1         1 NW2       0.046700
     39 H7          36.1080     9.4880    -3.7990 hc         1 NW2       0.041700
     40 H8          35.2250    11.5860    -2.8490 hc         1 NW2       0.030533
     41 H9          34.6210    11.3580    -4.4910 hc         1 NW2       0.030533
     42 H10         33.5690    11.0450    -3.1110 hc         1 NW2       0.030533
     43 H11         35.6930     9.5690    -1.3670 hc         1 NW2       0.030533
     44 H12         34.0570     8.9590    -1.5960 hc         1 NW2       0.030533
     45 H13         35.4400     7.9350    -1.9800 hc         1 NW2       0.030533
     46 H14         33.9670     0.4570    -4.9150 ha         1 NW2       0.115000
     47 H15         35.9980    -0.5800    -5.8510 ha         1 NW2       0.086000
     48 H16         37.7050     0.7850    -6.9540 ha         1 NW2       0.091000
     49 H17         32.1800     6.4510    -6.8010 ha         1 NW2       0.125000
     50 H18         35.9220     8.1440    -5.6350 ha         1 NW2       0.100000
     51 H19         35.8400     6.8650    -7.5710 hc         1 NW2       0.036700
     52 H20         34.3220     6.8660    -8.4430 hc         1 NW2       0.036700
     53 H21         33.6960     4.6870    -7.5440 h1         1 NW2       0.039200
     54 H22         35.2730     4.6290    -8.3400 h1         1 NW2       0.039200
     55 H23         30.3170     9.4910    -4.1810 ha         1 NW2       0.114000
     56 H28         39.2500     3.7810    -8.2130 h1         1 NW2       0.024700
     57 H29         39.3140     2.4540    -7.0410 h1         1 NW2       0.024700
     58 H30         38.4840     2.2280    -8.5950 h1         1 NW2       0.024700
     59 N18         27.7650     9.5650    -2.1930 n8         1 NW2      -0.987200
     60 H24         27.0240    10.1530    -1.8300 hn         1 NW2       0.395000
     61 H25         27.7780     8.7320    -1.6150 hn         1 NW2       0.395000
@<TRIPOS>BOND
     1     1     2 ar  
     2     1    10 1   
     3     1    22 ar  
     4     2     3 ar  
     5     2    33 1   
     6     3    20 ar  
     7     3    25 1   
     8     4     5 ar  
     9     4     8 1   
    10     4    26 ar  
    11     5     6 ar  
    12     5    27 1   
    13     6     7 ar  
    14     6    34 1   
    15     7    25 ar  
    16     7    35 1   
    17     8     9 1   
    18     8    36 1   
    19     8    59 1   
    20     9    27 1   
    21     9    37 1   
    22     9    38 1   
    23    10    11 1   
    24    10    12 1   
    25    10    39 1   
    26    11    40 1   
    27    11    41 1   
    28    11    42 1   
    29    12    43 1   
    30    12    44 1   
    31    12    45 1   
    32    13    14 ar  
    33    13    18 ar  
    34    13    28 1   
    35    14    15 ar  
    36    14    19 1   
    37    15    16 ar  
    38    15    46 1   
    39    16    17 ar  
    40    16    47 1   
    41    17    18 ar  
    42    17    48 1   
    43    18    31 1   
    44    19    29 1   
    45    19    30 1   
    46    20    21 ar  
    47    20    49 1   
    48    21    22 ar  
    49    21    23 1   
    50    22    50 1   
    51    23    24 1   
    52    23    51 1   
    53    23    52 1   
    54    24    28 1   
    55    24    53 1   
    56    24    54 1   
    57    25    26 ar  
    58    26    55 1   
    59    31    32 1   
    60    32    56 1   
    61    32    57 1   
    62    32    58 1   
    63    59    60 1   
    64    59    61 1   
@<TRIPOS>SUBSTRUCTURE
     1 NW2         1 TEMP              0 ****  ****    0 ROOT
