@<TRIPOS>MOLECULE
NW2
   61    64     1     0     0
SMALL
No Charge or Current Charge


@<TRIPOS>ATOM
      1 C1          34.2530     8.6800    -4.2540 ca         1 NW2      -0.089300
      2 C2          32.8680     8.4740    -4.0940 ca         1 NW2      -0.099000
      3 C3          32.1300     7.6760    -5.0020 cp         1 NW2      -0.025000
      4 C11         28.4460     8.2900    -4.1900 ca         1 NW2      -0.197300
      5 C12         27.8910     7.0690    -4.4930 ca         1 NW2       0.105100
      6 C13         28.6730     6.0030    -4.9490 ca         1 NW2      -0.137000
      7 C14         30.0580     6.2070    -5.1150 ca         1 NW2      -0.039000
      8 C15         27.4070     9.2420    -3.6970 c5         1 NW2       0.194800
      9 C16         26.1320     8.4010    -4.1190 c5         1 NW2       0.106600
     10 C20         35.0370     9.5420    -3.2620 c3         1 NW2      -0.010400
     11 C21         34.5300    11.0010    -3.2530 c3         1 NW2      -0.083100
     12 C22         35.0260     8.9250    -1.8450 c3         1 NW2      -0.083100
     13 C23         35.5980     3.2440    -6.0970 ca         1 NW2       0.079100
     14 C24         34.8180     2.5710    -5.1330 ca         1 NW2      -0.091600
     15 C25         34.9990     1.1870    -4.9350 ca         1 NW2      -0.120000
     16 C26         35.9440     0.4780    -5.6910 ca         1 NW2      -0.106000
     17 C27         36.7260     1.1440    -6.6480 ca         1 NW2      -0.224000
     18 C28         36.5640     2.5330    -6.8560 ca         1 NW2       0.092100
     19 C29         33.7870     3.3110    -4.3260 c          1 NW2       0.730600
     20 C4          32.8240     7.0880    -6.0870 ca         1 NW2      -0.066000
     21 C5          34.2080     7.2820    -6.2620 ca         1 NW2      -0.056300
     22 C6          34.9140     8.0800    -5.3430 ca         1 NW2      -0.094000
     23 C7          34.9330     6.6510    -7.4490 c3         1 NW2      -0.025100
     24 C8          34.8650     5.1090    -7.4810 c3         1 NW2       0.165600
     25 C9          30.6590     7.4650    -4.8220 cp         1 NW2      -0.066000
     26 C10         29.8240     8.5140    -4.3460 ca         1 NW2      -0.037000
     27 O17         26.5420     7.0010    -4.2850 os         1 NW2      -0.336100
     28 O19         35.4360     4.6030    -6.2610 os         1 NW2      -0.339100
     29 O30         33.9880     3.4450    -3.1260 o          1 NW2      -0.715500
     30 O31         32.7390     3.6200    -4.8770 o          1 NW2      -0.715500
     31 O32         37.3460     3.2230    -7.7680 os         1 NW2      -0.336100
     32 C33         38.3490     2.5780    -8.5710 c3         1 NW2       0.153900
     33 H1          32.3580     8.9250    -3.2480 ha         1 NW2       0.104000
     34 H2          28.2200     5.0400    -5.1700 ha         1 NW2       0.133000
     35 H3          30.6750     5.3790    -5.4590 ha         1 NW2       0.181000
     36 H4          27.4530    10.2220    -4.1980 h1         1 NW2       0.068700
     37 H5          25.3090     8.4690    -3.3960 h1         1 NW2       0.046700
     38 H6          25.7580     8.7550    -5.0890 h1         1 NW2       0.046700
     39 H7          36.0880     9.5790    -3.5780 hc         1 NW2       0.041700
     40 H8          35.1550    11.6230    -2.6010 hc         1 NW2       0.030533
     41 H9          34.5670    11.4260    -4.2640 hc         1 NW2       0.030533
     42 H10         33.4970    11.0610    -2.8930 hc         1 NW2       0.030533
     43 H11         35.6590     9.5090    -1.1650 hc         1 NW2       0.030533
     44 H12         34.0110     8.9010    -1.4310 hc         1 NW2       0.030533
     45 H13         35.4120     7.8990    -1.8710 hc         1 NW2       0.030533
     46 H14         34.3970     0.6630    -4.1940 ha         1 NW2       0.115000
     47 H15         36.0740    -0.5910    -5.5310 ha         1 NW2       0.086000
     48 H16         37.4540     0.5670    -7.2100 ha         1 NW2       0.091000
     49 H17         32.2780     6.4870    -6.8090 ha         1 NW2       0.125000
     50 H18         35.9820     8.2330    -5.4760 ha         1 NW2       0.100000
     51 H19         35.9880     6.9510    -7.4620 hc         1 NW2       0.036700
     52 H20         34.5020     7.0340    -8.3820 hc         1 NW2       0.036700
     53 H21         33.8220     4.7830    -7.5790 h1         1 NW2       0.039200
     54 H22         35.4160     4.7480    -8.3570 h1         1 NW2       0.039200
     55 H23         30.2410     9.4900    -4.1110 ha         1 NW2       0.114000
     56 H28         38.8420     3.3110    -9.2220 h1         1 NW2       0.024700
     57 H29         39.1170     2.1150    -7.9370 h1         1 NW2       0.024700
     58 H30         37.9010     1.8040    -9.2070 h1         1 NW2       0.024700
     59 N18         27.5910     9.4110    -2.2470 n8         1 NW2      -0.987200
     60 H24         26.7980     9.9400    -1.8660 hn         1 NW2       0.395000
     61 H25         27.5050     8.4900    -1.8050 hn         1 NW2       0.395000
@<TRIPOS>BOND
     1     1     2 ar  
     2     1    10 1   
     3     1    22 ar  
     4     2     3 ar  
     5     2    33 1   
     6     3    20 ar  
     7     3    25 1   
     8     4     5 ar  
     9     4     8 1   
    10     4    26 ar  
    11     5     6 ar  
    12     5    27 1   
    13     6     7 ar  
    14     6    34 1   
    15     7    25 ar  
    16     7    35 1   
    17     8     9 1   
    18     8    36 1   
    19     8    59 1   
    20     9    27 1   
    21     9    37 1   
    22     9    38 1   
    23    10    11 1   
    24    10    12 1   
    25    10    39 1   
    26    11    40 1   
    27    11    41 1   
    28    11    42 1   
    29    12    43 1   
    30    12    44 1   
    31    12    45 1   
    32    13    14 ar  
    33    13    18 ar  
    34    13    28 1   
    35    14    15 ar  
    36    14    19 1   
    37    15    16 ar  
    38    15    46 1   
    39    16    17 ar  
    40    16    47 1   
    41    17    18 ar  
    42    17    48 1   
    43    18    31 1   
    44    19    29 1   
    45    19    30 1   
    46    20    21 ar  
    47    20    49 1   
    48    21    22 ar  
    49    21    23 1   
    50    22    50 1   
    51    23    24 1   
    52    23    51 1   
    53    23    52 1   
    54    24    28 1   
    55    24    53 1   
    56    24    54 1   
    57    25    26 ar  
    58    26    55 1   
    59    31    32 1   
    60    32    56 1   
    61    32    57 1   
    62    32    58 1   
    63    59    60 1   
    64    59    61 1   
@<TRIPOS>SUBSTRUCTURE
     1 NW2         1 TEMP              0 ****  ****    0 ROOT
