@<TRIPOS>MOLECULE
NW3
   44    45     1     0     0
SMALL
No Charge or Current Charge


@<TRIPOS>ATOM
      1 C13        -54.3770    15.3250    38.4130 c3         1 NW3       0.145800
      2 C15        -56.4420    14.1430    37.4940 ca         1 NW3      -0.097500
      3 C17        -57.6290    14.9780    35.5380 ca         1 NW3      -0.102000
      4 C02        -53.3760    14.2790    32.6290 c5         1 NW3       0.152000
      5 C03        -52.9100    12.8120    32.9340 c5         1 NW3       0.024500
      6 C05        -51.7050    13.8240    34.6910 c5         1 NW3       0.365500
      7 C07        -51.4110    13.9970    36.2030 c3         1 NW3      -0.015300
      8 C08        -50.5780    12.8000    36.6950 c          1 NW3       0.608900
      9 C11        -52.9880    15.3660    37.6700 c          1 NW3       0.546100
     10 C14        -55.5220    15.2080    37.4050 ca         1 NW3      -0.101300
     11 C16        -57.4900    14.0290    36.5640 ca         1 NW3      -0.101500
     12 C18        -56.7180    16.0430    35.4430 ca         1 NW3      -0.101500
     13 C19        -55.6670    16.1570    36.3700 ca         1 NW3      -0.097500
     14 N04        -52.7000    12.7840    34.4280 n7         1 NW3      -0.828400
     15 N10        -52.6160    14.1780    37.0670 ns         1 NW3      -0.479900
     16 N20        -54.6460    16.4600    39.3600 n8         1 NW3      -0.999200
     17 O12        -52.2760    16.3650    37.6400 o          1 NW3      -0.634100
     18 S06        -52.5700    15.2900    33.9740 ss         1 NW3      -0.681000
     19 H1         -54.3540    14.4030    39.0120 h1         1 NW3       0.088700
     20 H2         -56.3490    13.4030    38.2860 ha         1 NW3       0.116500
     21 H3         -58.4400    14.8890    34.8190 ha         1 NW3       0.113000
     22 H4         -51.7910    14.7050    31.1690 hc         1 NW3       0.041367
     23 H5         -53.3270    14.2220    30.4330 hc         1 NW3       0.041367
     24 H6         -53.1400    15.8490    31.1070 hc         1 NW3       0.041367
     25 H7         -55.2950    14.1570    33.7010 hc         1 NW3       0.041367
     26 H8         -55.1430    15.5900    32.6780 hc         1 NW3       0.041367
     27 H9         -55.4580    14.0170    31.9420 hc         1 NW3       0.041367
     28 H10        -51.9540    12.6070    32.4320 h1         1 NW3       0.067700
     29 H11        -50.7680    13.6400    34.1420 h2         1 NW3       0.089700
     30 H12        -50.7650    14.8760    36.3070 h1         1 NW3       0.072700
     31 H13        -50.9630    11.7950    36.4150 h4         1 NW3       0.016200
     32 H14        -58.1950    13.2040    36.6390 ha         1 NW3       0.118500
     33 H15        -56.8220    16.7780    34.6480 ha         1 NW3       0.118500
     34 H16        -54.9640    16.9820    36.2800 ha         1 NW3       0.116500
     35 H17        -53.5740    13.0920    34.8640 hn         1 NW3       0.451000
     36 H19        -53.2660    13.4040    37.1610 hn         1 NW3       0.351500
     37 H20        -53.8410    16.5600    39.9900 hn         1 NW3       0.405500
     38 H21        -54.6230    17.3340    38.8220 hn         1 NW3       0.405500
     39 C24        -52.8810    14.7930    31.2560 c3         1 NW3      -0.071600
     40 C01        -54.9050    14.5210    32.7440 c3         1 NW3      -0.071600
     41 O09        -49.5530    12.9190    37.3630 o          1 NW3      -0.533100
     42 C21        -53.9430    11.7740    32.3310 c          1 NW3       0.726000
     43 O23        -53.7710    11.3750    31.1860 o          1 NW3      -0.716500
     44 O22        -54.8270    11.3100    33.0420 o          1 NW3      -0.716500
@<TRIPOS>BOND
     1     1     9 1   
     2     1    10 1   
     3     1    16 1   
     4     1    19 1   
     5     2    10 ar  
     6     2    11 ar  
     7     2    20 1   
     8     3    11 ar  
     9     3    12 ar  
    10     3    21 1   
    11     4     5 1   
    12     4    18 1   
    13     4    39 1   
    14     4    40 1   
    15     5    14 1   
    16     5    28 1   
    17     5    42 1   
    18     6     7 1   
    19     6    14 1   
    20     6    18 1   
    21     6    29 1   
    22     7     8 1   
    23     7    15 1   
    24     7    30 1   
    25     8    31 1   
    26     8    41 2   
    27     9    15 1   
    28     9    17 2   
    29    10    13 ar  
    30    11    32 1   
    31    12    13 ar  
    32    12    33 1   
    33    13    34 1   
    34    14    35 1   
    35    15    36 1   
    36    16    37 1   
    37    16    38 1   
    38    22    39 1   
    39    23    39 1   
    40    24    39 1   
    41    25    40 1   
    42    26    40 1   
    43    27    40 1   
    44    42    43 1   
    45    42    44 1   
@<TRIPOS>SUBSTRUCTURE
     1 NW3         1 TEMP              0 ****  ****    0 ROOT
