@<TRIPOS>MOLECULE
NW3
   44    45     1     0     0
SMALL
abcg2


@<TRIPOS>ATOM
      1 C13        -54.4880    15.4370    38.3240 c3         1 NW3       0.145800
      2 C15        -55.9920    13.8810    37.0560 ca         1 NW3      -0.097500
      3 C17        -57.5510    14.6470    35.3870 ca         1 NW3      -0.102000
      4 C02        -53.2660    14.3320    32.6630 c5         1 NW3       0.152000
      5 C03        -52.8220    12.8730    33.0300 c5         1 NW3       0.024500
      6 C05        -51.5580    13.9330    34.7240 c5         1 NW3       0.365500
      7 C07        -51.5250    14.2640    36.2210 c3         1 NW3      -0.015300
      8 C08        -51.0840    13.0050    36.9540 c          1 NW3       0.608900
      9 C11        -53.1450    14.7740    37.9710 c          1 NW3       0.546100
     10 C14        -55.5660    15.1920    37.2870 ca         1 NW3      -0.101300
     11 C16        -56.9760    13.6080    36.1170 ca         1 NW3      -0.101500
     12 C18        -57.1310    15.9520    35.6060 ca         1 NW3      -0.101500
     13 C19        -56.1430    16.2240    36.5510 ca         1 NW3      -0.097500
     14 N04        -52.4180    12.8250    34.4240 n7         1 NW3      -0.828400
     15 N10        -52.8330    14.6880    36.6670 ns         1 NW3      -0.479900
     16 N20        -54.2800    16.8580    38.6100 n8         1 NW3      -0.999200
     17 O12        -52.3700    14.3940    38.8520 o          1 NW3      -0.634100
     18 S06        -52.1270    15.3900    33.6830 ss         1 NW3      -0.681000
     19 H1         -54.7960    14.9620    39.2570 h1         1 NW3       0.088700
     20 H2         -55.5470    13.0690    37.6200 ha         1 NW3       0.116500
     21 H3         -58.3150    14.4360    34.6500 ha         1 NW3       0.113000
     22 H4         -52.0140    14.4430    30.8930 hc         1 NW3       0.041367
     23 H5         -53.6970    13.9810    30.5890 hc         1 NW3       0.041367
     24 H6         -53.2950    15.6650    30.9500 hc         1 NW3       0.041367
     25 H7         -54.9000    14.3700    34.1080 hc         1 NW3       0.041367
     26 H8         -54.9310    15.6870    32.9370 hc         1 NW3       0.041367
     27 H9         -55.4020    14.0560    32.4440 hc         1 NW3       0.041367
     28 H10        -51.9560    12.6320    32.4080 h1         1 NW3       0.067700
     29 H11        -50.5380    13.7160    34.4100 h2         1 NW3       0.089700
     30 H12        -50.7710    15.0360    36.3950 h1         1 NW3       0.072700
     31 H13        -51.8920    12.3130    37.2390 h4         1 NW3       0.016200
     32 H14        -57.2920    12.5860    35.9500 ha         1 NW3       0.118500
     33 H15        -57.5670    16.7650    35.0390 ha         1 NW3       0.118500
     34 H16        -55.8330    17.2460    36.7190 ha         1 NW3       0.116500
     35 H17        -53.2560    12.8120    34.9980 hn         1 NW3       0.451000
     36 H19        -53.4440    15.1040    35.9750 hn         1 NW3       0.351500
     37 H20        -53.6310    16.9540    39.3840 hn         1 NW3       0.405500
     38 H21        -53.8550    17.3260    37.8140 hn         1 NW3       0.405500
     39 C24        -53.0490    14.6280    31.1830 c3         1 NW3      -0.071600
     40 C01        -54.7100    14.6270    33.0680 c3         1 NW3      -0.071600
     41 O09        -49.9200    12.7410    37.1430 o          1 NW3      -0.533100
     42 C21        -53.9410    11.8430    32.7360 c          1 NW3       0.726000
     43 O23        -54.0730    11.5000    31.5370 o          1 NW3      -0.716500
     44 O22        -54.6320    11.4630    33.7120 o          1 NW3      -0.716500
@<TRIPOS>BOND
     1     1     9 1   
     2     1    10 1   
     3     1    16 1   
     4     1    19 1   
     5     2    10 ar  
     6     2    11 ar  
     7     2    20 1   
     8     3    11 ar  
     9     3    12 ar  
    10     3    21 1   
    11     4     5 1   
    12     4    18 1   
    13     4    39 1   
    14     4    40 1   
    15     5    14 1   
    16     5    28 1   
    17     5    42 1   
    18     6     7 1   
    19     6    14 1   
    20     6    18 1   
    21     6    29 1   
    22     7     8 1   
    23     7    15 1   
    24     7    30 1   
    25     8    31 1   
    26     8    41 2   
    27     9    15 1   
    28     9    17 2   
    29    10    13 ar  
    30    11    32 1   
    31    12    13 ar  
    32    12    33 1   
    33    13    34 1   
    34    14    35 1   
    35    15    36 1   
    36    16    37 1   
    37    16    38 1   
    38    22    39 1   
    39    23    39 1   
    40    24    39 1   
    41    25    40 1   
    42    26    40 1   
    43    27    40 1   
    44    42    43 1   
    45    42    44 1   
@<TRIPOS>SUBSTRUCTURE
     1 NW3         1 TEMP              0 ****  ****    0 ROOT
