@<TRIPOS>MOLECULE
NW4
   39    40     1     0     0
SMALL
No Charge or Current Charge


@<TRIPOS>ATOM
      1 N1          -2.4760    -0.2940     0.0330 n          1 NW4      -0.419800
      2 C4           2.6830    -0.2150     0.3170 c6         1 NW4      -0.061700
      3 C5           2.9570     0.9350    -0.6970 c6         1 NW4      -0.071400
      4 C6           4.2710     1.6870    -0.3670 c6         1 NW4      -0.073400
      5 C7           5.4750     0.7180    -0.3010 c6         1 NW4      -0.074400
      6 C8           5.2140    -0.4210     0.7130 c6         1 NW4      -0.073400
      7 C10         -3.7580    -1.0450    -0.1770 c6         1 NW4       0.061500
      8 C13         -2.5690     1.1990    -0.1080 c6         1 NW4       0.061500
      9 C1          -1.2430    -0.9720    -0.1280 c          1 NW4       0.608100
     10 C11         -5.0400    -0.2940     0.2640 c6         1 NW4       0.137100
     11 C12         -3.9270     1.8160     0.3190 c6         1 NW4       0.137100
     12 C2           0.0670    -0.1770     0.0620 c3         1 NW4      -0.151400
     13 C3           1.3770    -1.0050    -0.0060 c3         1 NW4      -0.063400
     14 C9           3.9040    -1.1770     0.3790 c6         1 NW4      -0.071400
     15 O1          -1.2230    -2.1740    -0.3680 o          1 NW4      -0.603100
     16 O2          -5.0240     1.0600    -0.2230 os         1 NW4      -0.444000
     17 H1           2.5410     0.2250     1.3150 hc         1 NW4       0.042700
     18 H2           3.0120     0.5300    -1.7160 hc         1 NW4       0.037950
     19 H3           2.1300     1.6570    -0.6920 hc         1 NW4       0.037950
     20 H4           4.4570     2.4610    -1.1240 hc         1 NW4       0.037950
     21 H5           4.1650     2.2110     0.5940 hc         1 NW4       0.037950
     22 H6           5.6630     0.2920    -1.2970 hc         1 NW4       0.038200
     23 H7           6.3830     1.2680    -0.0190 hc         1 NW4       0.038200
     24 H8           6.0600    -1.1220     0.7110 hc         1 NW4       0.037950
     25 H9           5.1540    -0.0070     1.7290 hc         1 NW4       0.037950
     26 H10         -3.8470    -1.2880    -1.2450 h1         1 NW4       0.060450
     27 H11         -3.7150    -2.0000     0.3660 h1         1 NW4       0.060450
     28 H12         -1.7850     1.6840     0.4890 h1         1 NW4       0.060450
     29 H13         -2.3830     1.4600    -1.1590 h1         1 NW4       0.060450
     30 H14         -5.9290    -0.8090    -0.1270 h1         1 NW4       0.053200
     31 H15         -5.1100    -0.2830     1.3610 h1         1 NW4       0.053200
     32 H16         -4.0040     1.8250     1.4170 h1         1 NW4       0.053200
     33 H17         -3.9930     2.8550    -0.0330 h1         1 NW4       0.053200
     34 H18          0.0640     0.6390    -0.6680 hc         1 NW4       0.056200
     35 H19         -0.0090     0.3740     1.0060 hc         1 NW4       0.056200
     36 H20          1.4550    -1.4580    -1.0030 hc         1 NW4       0.056200
     37 H21          1.2850    -1.8400     0.7000 hc         1 NW4       0.056200
     38 H22          3.7320    -1.9550     1.1360 hc         1 NW4       0.037950
     39 H23          4.0180    -1.6990    -0.5810 hc         1 NW4       0.037950
@<TRIPOS>BOND
     1     1     7 1   
     2     1     8 1   
     3     1     9 1   
     4     2     3 1   
     5     2    13 1   
     6     2    14 1   
     7     2    17 1   
     8     3     4 1   
     9     3    18 1   
    10     3    19 1   
    11     4     5 1   
    12     4    20 1   
    13     4    21 1   
    14     5     6 1   
    15     5    22 1   
    16     5    23 1   
    17     6    14 1   
    18     6    24 1   
    19     6    25 1   
    20     7    10 1   
    21     7    26 1   
    22     7    27 1   
    23     8    11 1   
    24     8    28 1   
    25     8    29 1   
    26     9    12 1   
    27     9    15 2   
    28    10    16 1   
    29    10    30 1   
    30    10    31 1   
    31    11    16 1   
    32    11    32 1   
    33    11    33 1   
    34    12    13 1   
    35    12    34 1   
    36    12    35 1   
    37    13    36 1   
    38    13    37 1   
    39    14    38 1   
    40    14    39 1   
@<TRIPOS>SUBSTRUCTURE
     1 NW4         1 TEMP              0 ****  ****    0 ROOT
