@<TRIPOS>MOLECULE
NW4
   39    40     1     0     0
SMALL
abcg2


@<TRIPOS>ATOM
      1 N1          -2.3940    -0.2510    -0.2690 n          1 NW4      -0.419800
      2 C4           2.5650    -0.1800     0.3930 c6         1 NW4      -0.061700
      3 C5           2.8280     0.9160    -0.6410 c6         1 NW4      -0.071400
      4 C6           4.1380     1.6520    -0.3750 c6         1 NW4      -0.073400
      5 C7           5.3170     0.6880    -0.3090 c6         1 NW4      -0.074400
      6 C8           5.0740    -0.3980     0.7330 c6         1 NW4      -0.073400
      7 C10         -3.6500    -0.9460    -0.4890 c6         1 NW4       0.061500
      8 C13         -2.5100     1.1900    -0.3990 c6         1 NW4       0.061500
      9 C1          -1.2390    -0.9340    -0.0910 c          1 NW4       0.608100
     10 C11         -4.7340    -0.3520     0.3910 c6         1 NW4       0.137100
     11 C12         -3.6450     1.7000     0.4750 c6         1 NW4       0.137100
     12 C2           0.0330    -0.1180     0.0520 c3         1 NW4      -0.151400
     13 C3           1.2890    -0.9760     0.1170 c3         1 NW4      -0.063400
     14 C9           3.7620    -1.1300     0.4710 c6         1 NW4      -0.071400
     15 O1          -1.2180    -2.1580    -0.0480 o          1 NW4      -0.603100
     16 O2          -4.8580     1.0400     0.1960 os         1 NW4      -0.444000
     17 H1           2.4610     0.3060     1.3730 hc         1 NW4       0.042700
     18 H2           2.8600     0.4650    -1.6410 hc         1 NW4       0.037950
     19 H3           2.0070     1.6370    -0.6550 hc         1 NW4       0.037950
     20 H4           4.3050     2.4040    -1.1500 hc         1 NW4       0.037950
     21 H5           4.0630     2.1970     0.5720 hc         1 NW4       0.037950
     22 H6           5.4560     0.2220    -1.2910 hc         1 NW4       0.038200
     23 H7           6.2420     1.2290    -0.0890 hc         1 NW4       0.038200
     24 H8           5.9050    -1.1090     0.7420 hc         1 NW4       0.037950
     25 H9           5.0440     0.0550     1.7300 hc         1 NW4       0.037950
     26 H10         -3.9350    -0.8590    -1.5440 h1         1 NW4       0.060450
     27 H11         -3.5320    -2.0030    -0.2630 h1         1 NW4       0.060450
     28 H12         -1.5930     1.6900    -0.0980 h1         1 NW4       0.060450
     29 H13         -2.6990     1.4520    -1.4460 h1         1 NW4       0.060450
     30 H14         -5.6960    -0.8030     0.1460 h1         1 NW4       0.053200
     31 H15         -4.5120    -0.5750     1.4440 h1         1 NW4       0.053200
     32 H16         -3.3700     1.5770     1.5320 h1         1 NW4       0.053200
     33 H17         -3.7990     2.7640     0.2890 h1         1 NW4       0.053200
     34 H18          0.1020     0.5790    -0.7860 hc         1 NW4       0.056200
     35 H19         -0.0400     0.5060     0.9500 hc         1 NW4       0.056200
     36 H20          1.4050    -1.5220    -0.8250 hc         1 NW4       0.056200
     37 H21          1.1760    -1.7330     0.8960 hc         1 NW4       0.056200
     38 H22          3.5880    -1.8760     1.2510 hc         1 NW4       0.037950
     39 H23          3.8370    -1.6840    -0.4730 hc         1 NW4       0.037950
@<TRIPOS>BOND
     1     1     7 1   
     2     1     8 1   
     3     1     9 1   
     4     2     3 1   
     5     2    13 1   
     6     2    14 1   
     7     2    17 1   
     8     3     4 1   
     9     3    18 1   
    10     3    19 1   
    11     4     5 1   
    12     4    20 1   
    13     4    21 1   
    14     5     6 1   
    15     5    22 1   
    16     5    23 1   
    17     6    14 1   
    18     6    24 1   
    19     6    25 1   
    20     7    10 1   
    21     7    26 1   
    22     7    27 1   
    23     8    11 1   
    24     8    28 1   
    25     8    29 1   
    26     9    12 1   
    27     9    15 2   
    28    10    16 1   
    29    10    30 1   
    30    10    31 1   
    31    11    16 1   
    32    11    32 1   
    33    11    33 1   
    34    12    13 1   
    35    12    34 1   
    36    12    35 1   
    37    13    36 1   
    38    13    37 1   
    39    14    38 1   
    40    14    39 1   
@<TRIPOS>SUBSTRUCTURE
     1 NW4         1 TEMP              0 ****  ****    0 ROOT
