@<TRIPOS>MOLECULE
NW5
   58    61     1     0     0
SMALL
No Charge or Current Charge


@<TRIPOS>ATOM
      1 C1          32.7520     6.9880    -4.4040 cp         1 NW5      -0.021000
      2 C2          33.5100     8.0420    -3.8390 ca         1 NW5      -0.094000
      3 C3          34.8950     8.1950    -4.0890 ca         1 NW5      -0.105300
      4 C11         36.5200     0.3590    -7.8370 ca         1 NW5      -0.151000
      5 C12         35.7000     0.2840    -6.7000 ca         1 NW5      -0.099000
      6 C13         35.2610     1.4560    -6.0510 ca         1 NW5      -0.015300
      7 C14         34.3620     1.3280    -4.8140 c3         1 NW5      -0.175100
      8 C15         32.8860     1.3130    -5.2450 c          1 NW5       0.729000
      9 C18         31.2880     6.8510    -4.1210 cp         1 NW5      -0.086000
     10 C19         30.4600     8.0000    -3.9830 ca         1 NW5      -0.033000
     11 C20         29.0900     7.8440    -3.7180 ca         1 NW5      -0.198300
     12 C21         28.5340     6.5930    -3.5930 ca         1 NW5       0.110100
     13 C22         29.3080     5.4340    -3.7070 ca         1 NW5      -0.133000
     14 C23         30.6860     5.5660    -3.9750 ca         1 NW5      -0.030000
     15 C24         28.0610     8.9080    -3.5250 c5         1 NW5       0.193800
     16 C25         26.7790     7.9810    -3.6120 c5         1 NW5       0.106600
     17 C28         33.4200     6.0690    -5.2440 ca         1 NW5      -0.038000
     18 C29         35.6640     9.3730    -3.4290 c3         1 NW5       0.071400
     19 C30         35.0400    10.6420    -3.8710 c1         1 NW5       0.318900
     20 C4          35.5240     7.2510    -4.9360 ca         1 NW5      -0.094000
     21 C5          34.7950     6.1930    -5.5100 ca         1 NW5      -0.087300
     22 C6          35.4840     5.1840    -6.4210 c3         1 NW5       0.215900
     23 O7          35.2190     3.8640    -5.9210 os         1 NW5      -0.317100
     24 C8          35.6550     2.7200    -6.5620 ca         1 NW5       0.143100
     25 C9          36.4800     2.7850    -7.7090 ca         1 NW5      -0.207000
     26 C10         36.9100     1.6070    -8.3420 ca         1 NW5      -0.111000
     27 O16         32.2960     2.3780    -5.3410 o          1 NW5      -0.736000
     28 O17         32.3960     0.2410    -5.5720 o          1 NW5      -0.736000
     29 O26         27.1920     6.6000    -3.3310 os         1 NW5      -0.335100
     30 N27         28.2910     9.5340    -2.2130 n8         1 NW5      -0.986200
     31 N31         34.5640    11.6550    -4.1980 n1         1 NW5      -0.490000
     32 C32         35.5620     9.2580    -1.8830 c3         1 NW5      -0.081600
     33 C33         37.1710     9.4230    -3.8130 c3         1 NW5      -0.081600
     34 H1          33.0050     8.7480    -3.1840 ha         1 NW5       0.111000
     35 H2          36.8520    -0.5530    -8.3290 ha         1 NW5       0.092000
     36 H3          35.4020    -0.6920    -6.3220 ha         1 NW5       0.104000
     37 H4          34.6170     0.3760    -4.3350 hc         1 NW5       0.035200
     38 H5          34.5570     2.1870    -4.1620 hc         1 NW5       0.035200
     39 H6          30.8760     8.9990    -4.0890 ha         1 NW5       0.116000
     40 H7          28.8540     4.4530    -3.5930 ha         1 NW5       0.139000
     41 H8          31.2930     4.6670    -4.0560 ha         1 NW5       0.189000
     42 H9          28.0850     9.6730    -4.3160 h1         1 NW5       0.071700
     43 H10         25.9790     8.2820    -2.9230 h1         1 NW5       0.048700
     44 H11         26.3710     8.0050    -4.6310 h1         1 NW5       0.048700
     45 H12         32.8650     5.2540    -5.7040 ha         1 NW5       0.169000
     46 H13         36.5840     7.3170    -5.1610 ha         1 NW5       0.102000
     47 H14         36.5650     5.3760    -6.4440 h1         1 NW5       0.029200
     48 H15         35.0910     5.2960    -7.4390 h1         1 NW5       0.029200
     49 H16         36.8000     3.7370    -8.1220 ha         1 NW5       0.096000
     50 H17         37.5450     1.6630    -9.2230 ha         1 NW5       0.087000
     51 H19         27.5090    10.1630    -1.9980 hn         1 NW5       0.394000
     52 H20         28.2240     8.8050    -1.4950 hn         1 NW5       0.394000
     53 H22         36.1190    10.0650    -1.3890 hc         1 NW5       0.043867
     54 H23         34.5230     9.3140    -1.5360 hc         1 NW5       0.043867
     55 H24         35.9790     8.3030    -1.5410 hc         1 NW5       0.043867
     56 H25         37.6700    10.2760    -3.3360 hc         1 NW5       0.043867
     57 H26         37.6900     8.5140    -3.4850 hc         1 NW5       0.043867
     58 H27         37.3030     9.5270    -4.8980 hc         1 NW5       0.043867
@<TRIPOS>BOND
     1     1     2 ar  
     2     1     9 1   
     3     1    17 ar  
     4     2     3 ar  
     5     2    34 1   
     6     3    18 1   
     7     3    20 ar  
     8     4     5 ar  
     9     4    26 ar  
    10     4    35 1   
    11     5     6 ar  
    12     5    36 1   
    13     6     7 1   
    14     6    24 ar  
    15     7     8 1   
    16     7    37 1   
    17     7    38 1   
    18     8    27 1   
    19     8    28 1   
    20     9    10 ar  
    21     9    14 ar  
    22    10    11 ar  
    23    10    39 1   
    24    11    12 ar  
    25    11    15 1   
    26    12    13 ar  
    27    12    29 1   
    28    13    14 ar  
    29    13    40 1   
    30    14    41 1   
    31    15    16 1   
    32    15    30 1   
    33    15    42 1   
    34    16    29 1   
    35    16    43 1   
    36    16    44 1   
    37    17    21 ar  
    38    17    45 1   
    39    18    19 1   
    40    18    32 1   
    41    18    33 1   
    42    19    31 3   
    43    20    21 ar  
    44    20    46 1   
    45    21    22 1   
    46    22    23 1   
    47    22    47 1   
    48    22    48 1   
    49    23    24 1   
    50    24    25 ar  
    51    25    26 ar  
    52    25    49 1   
    53    26    50 1   
    54    30    51 1   
    55    30    52 1   
    56    32    53 1   
    57    32    54 1   
    58    32    55 1   
    59    33    56 1   
    60    33    57 1   
    61    33    58 1   
@<TRIPOS>SUBSTRUCTURE
     1 NW5         1 TEMP              0 ****  ****    0 ROOT
