@<TRIPOS>MOLECULE
NW5
   58    61     1     0     0
SMALL
abcg2


@<TRIPOS>ATOM
      1 C1          32.8100     6.8700    -4.3290 cp         1 NW5      -0.021000
      2 C2          33.5210     7.9450    -3.7980 ca         1 NW5      -0.094000
      3 C3          34.8760     8.1170    -4.0520 ca         1 NW5      -0.105300
      4 C11         36.1220     0.4640    -8.0170 ca         1 NW5      -0.151000
      5 C12         35.4740     0.4030    -6.7850 ca         1 NW5      -0.099000
      6 C13         35.2340     1.5380    -6.0250 ca         1 NW5      -0.015300
      7 C14         34.5410     1.4710    -4.7010 c3         1 NW5      -0.175100
      8 C15         33.1500     2.1560    -4.6640 c          1 NW5       0.729000
      9 C18         31.3620     6.7300    -4.0750 cp         1 NW5      -0.086000
     10 C19         30.5290     7.8550    -4.1060 ca         1 NW5      -0.033000
     11 C20         29.1740     7.7040    -3.9060 ca         1 NW5      -0.198300
     12 C21         28.6370     6.4520    -3.6490 ca         1 NW5       0.110100
     13 C22         29.4330     5.3200    -3.5920 ca         1 NW5      -0.133000
     14 C23         30.7970     5.4790    -3.8110 ca         1 NW5      -0.030000
     15 C24         28.0710     8.7230    -3.8140 c5         1 NW5       0.193800
     16 C25         26.8420     7.7840    -3.8350 c5         1 NW5       0.106600
     17 C28         33.4910     5.9510    -5.1230 ca         1 NW5      -0.038000
     18 C29         35.6150     9.2850    -3.4010 c3         1 NW5       0.071400
     19 C30         34.8390    10.5070    -3.6530 c1         1 NW5       0.318900
     20 C4          35.5320     7.1900    -4.8530 ca         1 NW5      -0.094000
     21 C5          34.8450     6.1090    -5.3930 ca         1 NW5      -0.087300
     22 C6          35.5440     5.1420    -6.3040 c3         1 NW5       0.215900
     23 O7          35.4120     3.8460    -5.7530 os         1 NW5      -0.317100
     24 C8          35.6680     2.7720    -6.5320 ca         1 NW5       0.143100
     25 C9          36.3250     2.8480    -7.7550 ca         1 NW5      -0.207000
     26 C10         36.5470     1.6900    -8.4950 ca         1 NW5      -0.111000
     27 O16         32.7490     2.4940    -3.5310 o          1 NW5      -0.736000
     28 O17         32.5430     2.2810    -5.7430 o          1 NW5      -0.736000
     29 O26         27.3030     6.4730    -3.4650 os         1 NW5      -0.335100
     30 N27         28.2520     9.5620    -2.6440 n8         1 NW5      -0.986200
     31 N31         34.2410    11.4710    -3.8460 n1         1 NW5      -0.490000
     32 C32         35.7010     9.0680    -1.8800 c3         1 NW5      -0.081600
     33 C33         37.0220     9.5140    -3.9660 c3         1 NW5      -0.081600
     34 H1          33.0010     8.6520    -3.1610 ha         1 NW5       0.111000
     35 H2          36.2910    -0.4400    -8.5880 ha         1 NW5       0.092000
     36 H3          35.1410    -0.5560    -6.4040 ha         1 NW5       0.104000
     37 H4          34.3990     0.4190    -4.4300 hc         1 NW5       0.035200
     38 H5          35.1660     1.8990    -3.9130 hc         1 NW5       0.035200
     39 H6          30.9400     8.8360    -4.3140 ha         1 NW5       0.116000
     40 H7          29.0170     4.3440    -3.3790 ha         1 NW5       0.139000
     41 H8          31.4330     4.6020    -3.7490 ha         1 NW5       0.189000
     42 H9          28.0420     9.3770    -4.6890 h1         1 NW5       0.071700
     43 H10         26.0620     8.0890    -3.1370 h1         1 NW5       0.048700
     44 H11         26.4140     7.7260    -4.8390 h1         1 NW5       0.048700
     45 H12         32.9530     5.1180    -5.5620 ha         1 NW5       0.169000
     46 H13         36.5870     7.2960    -5.0720 ha         1 NW5       0.102000
     47 H14         36.5980     5.4160    -6.4190 h1         1 NW5       0.029200
     48 H15         35.0860     5.1790    -7.2990 h1         1 NW5       0.029200
     49 H16         36.6770     3.7940    -8.1440 ha         1 NW5       0.096000
     50 H17         37.0580     1.7600    -9.4470 ha         1 NW5       0.087000
     51 H19         27.4860    10.2210    -2.5710 hn         1 NW5       0.394000
     52 H20         28.2240     8.9980    -1.8020 hn         1 NW5       0.394000
     53 H22         36.2090     9.9040    -1.3990 hc         1 NW5       0.043867
     54 H23         34.7150     8.9560    -1.4320 hc         1 NW5       0.043867
     55 H24         36.2720     8.1600    -1.6860 hc         1 NW5       0.043867
     56 H25         37.4680    10.3960    -3.5090 hc         1 NW5       0.043867
     57 H26         37.6610     8.6630    -3.7310 hc         1 NW5       0.043867
     58 H27         37.0100     9.6540    -5.0460 hc         1 NW5       0.043867
@<TRIPOS>BOND
     1     1     2 ar  
     2     1     9 1   
     3     1    17 ar  
     4     2     3 ar  
     5     2    34 1   
     6     3    18 1   
     7     3    20 ar  
     8     4     5 ar  
     9     4    26 ar  
    10     4    35 1   
    11     5     6 ar  
    12     5    36 1   
    13     6     7 1   
    14     6    24 ar  
    15     7     8 1   
    16     7    37 1   
    17     7    38 1   
    18     8    27 1   
    19     8    28 1   
    20     9    10 ar  
    21     9    14 ar  
    22    10    11 ar  
    23    10    39 1   
    24    11    12 ar  
    25    11    15 1   
    26    12    13 ar  
    27    12    29 1   
    28    13    14 ar  
    29    13    40 1   
    30    14    41 1   
    31    15    16 1   
    32    15    30 1   
    33    15    42 1   
    34    16    29 1   
    35    16    43 1   
    36    16    44 1   
    37    17    21 ar  
    38    17    45 1   
    39    18    19 1   
    40    18    32 1   
    41    18    33 1   
    42    19    31 3   
    43    20    21 ar  
    44    20    46 1   
    45    21    22 1   
    46    22    23 1   
    47    22    47 1   
    48    22    48 1   
    49    23    24 1   
    50    24    25 ar  
    51    25    26 ar  
    52    25    49 1   
    53    26    50 1   
    54    30    51 1   
    55    30    52 1   
    56    32    53 1   
    57    32    54 1   
    58    32    55 1   
    59    33    56 1   
    60    33    57 1   
    61    33    58 1   
@<TRIPOS>SUBSTRUCTURE
     1 NW5         1 TEMP              0 ****  ****    0 ROOT
