@<TRIPOS>MOLECULE
NW6
   32    34     1     0     0
SMALL
No Charge or Current Charge


@<TRIPOS>ATOM
      1 O2          17.8120    65.1970    32.9230 o          1 NW6      -0.458000
      2 C13         18.6360    64.3600    33.2580 c          1 NW6       0.653100
      3 O3          19.6000    63.8350    32.4470 os         1 NW6      -0.462100
      4 C14         19.6590    64.2990    31.0850 c3         1 NW6       0.171900
      5 N3          18.7610    63.7850    34.4890 ns         1 NW6      -0.416400
      6 C12         18.0140    64.0040    35.6140 cc         1 NW6       0.508400
      7 N1          16.9790    64.8570    35.7160 nd         1 NW6      -0.563100
      8 C8          16.5590    64.7190    37.0370 ca         1 NW6       0.074400
      9 C7          15.5040    65.3780    37.6860 ca         1 NW6       0.004000
     10 N2          18.2450    63.3490    36.8160 na         1 NW6      -0.349600
     11 C9          17.3230    63.8090    37.7030 ca         1 NW6      -0.059200
     12 C10         17.1090    63.4690    39.0410 ca         1 NW6      -0.126000
     13 C11         16.0550    64.1170    39.7180 ca         1 NW6      -0.064000
     14 C6          15.2560    65.0920    39.0540 ca         1 NW6      -0.181600
     15 C5          14.1040    65.7850    39.7440 c          1 NW6       0.624300
     16 O1          13.0750    66.0300    39.1260 o          1 NW6      -0.527100
     17 C4          14.2130    66.0590    41.1950 cc         1 NW6      -0.315600
     18 C3          15.3790    66.2100    41.9130 cd         1 NW6      -0.082000
     19 C2          15.1550    66.6060    43.2590 cd         1 NW6      -0.148000
     20 C1          13.8300    66.7950    43.5610 cc         1 NW6      -0.249000
     21 S           12.8090    66.5110    42.1540 ss         1 NW6       0.300000
     22 H14         20.4740    63.8000    30.5460 h1         1 NW6       0.053367
     23 H14B        18.7210    64.0850    30.5560 h1         1 NW6       0.053367
     24 H14A        19.8400    65.3820    31.0470 h1         1 NW6       0.053367
     25 HN3         19.5120    63.1150    34.5480 hn         1 NW6       0.336500
     26 H7          14.8990    66.1000    37.1430 ha         1 NW6       0.149000
     27 H12         18.9660    62.6610    36.9890 hn         1 NW6       0.356000
     28 H10         17.7240    62.7240    39.5410 ha         1 NW6       0.120000
     29 H11         15.8490    63.8430    40.7500 ha         1 NW6       0.122000
     30 H3          16.3760    66.0690    41.5040 ha         1 NW6       0.139000
     31 H2          15.9570    66.7600    43.9750 ha         1 NW6       0.136000
     32 H1          13.3750    67.0990    44.4950 h4         1 NW6       0.151000
@<TRIPOS>BOND
     1     1     2 2   
     2     2     3 1   
     3     2     5 1   
     4     3     4 1   
     5     4    22 1   
     6     4    23 1   
     7     4    24 1   
     8     5     6 1   
     9     5    25 1   
    10     6     7 2   
    11     6    10 1   
    12     7     8 1   
    13     8     9 ar  
    14     8    11 ar  
    15     9    14 ar  
    16     9    26 1   
    17    10    11 1   
    18    10    27 1   
    19    11    12 ar  
    20    12    13 ar  
    21    12    28 1   
    22    13    14 ar  
    23    13    29 1   
    24    14    15 1   
    25    15    16 2   
    26    15    17 1   
    27    17    18 2   
    28    17    21 1   
    29    18    19 1   
    30    18    30 1   
    31    19    20 2   
    32    19    31 1   
    33    20    21 1   
    34    20    32 1   
@<TRIPOS>SUBSTRUCTURE
     1 NW6         1 TEMP              0 ****  ****    0 ROOT
