@<TRIPOS>MOLECULE
NW6
   32    34     1     0     0
SMALL
bcc


@<TRIPOS>ATOM
      1 O2          17.8110    65.1980    33.0020 o          1 NW6      -0.507000
      2 C13         18.6210    64.3570    33.2910 c          1 NW6       0.769100
      3 O3          19.5400    63.8630    32.4690 os         1 NW6      -0.438900
      4 C14         19.5570    64.3770    31.1390 c3         1 NW6       0.148700
      5 N3          18.7530    63.7490    34.5160 ns         1 NW6      -0.483400
      6 C12         17.9890    64.0040    35.6240 cc         1 NW6       0.508400
      7 N1          17.0030    64.8460    35.7320 nd         1 NW6      -0.563100
      8 C8          16.5790    64.7150    37.0340 ca         1 NW6       0.074400
      9 C7          15.5480    65.3590    37.6970 ca         1 NW6      -0.014000
     10 N2          18.2520    63.3190    36.7740 na         1 NW6      -0.299300
     11 C9          17.3550    63.7570    37.7100 ca         1 NW6      -0.059200
     12 C10         17.1380    63.4210    39.0370 ca         1 NW6      -0.144000
     13 C11         16.1200    64.0910    39.6930 ca         1 NW6      -0.082000
     14 C6          15.3320    65.0550    39.0410 ca         1 NW6      -0.181600
     15 C5          14.2000    65.7230    39.7260 c          1 NW6       0.624300
     16 O1          13.1760    66.0000    39.1250 o          1 NW6      -0.527100
     17 C4          14.3240    66.0750    41.1420 cc         1 NW6      -0.170700
     18 C3          15.4270    66.1950    41.9490 cd         1 NW6      -0.100000
     19 C2          15.1050    66.6460    43.2500 cd         1 NW6      -0.166000
     20 C1          13.7650    66.8630    43.4050 cc         1 NW6      -0.122100
     21 S           12.8890    66.5410    41.9800 ss         1 NW6       0.010200
     22 H14         20.3690    63.8610    30.6350 h1         1 NW6       0.053367
     23 H14B        18.6220    64.1730    30.6190 h1         1 NW6       0.053367
     24 H14A        19.7500    65.4500    31.1280 h1         1 NW6       0.053367
     25 HN3         19.4740    63.0470    34.6060 hn         1 NW6       0.336500
     26 H7          14.9380    66.0940    37.1870 ha         1 NW6       0.167000
     27 H12         18.9770    62.6310    36.9130 hn         1 NW6       0.305700
     28 H10         17.7270    62.6670    39.5410 ha         1 NW6       0.138000
     29 H11         15.9100    63.8340    40.7220 ha         1 NW6       0.140000
     30 H3          16.4350    65.9910    41.6200 ha         1 NW6       0.157000
     31 H2          15.8310    66.8040    44.0340 ha         1 NW6       0.154000
     32 H1          13.2530    67.1990    44.2940 h4         1 NW6       0.169000
@<TRIPOS>BOND
     1     1     2 2   
     2     2     3 1   
     3     2     5 1   
     4     3     4 1   
     5     4    22 1   
     6     4    23 1   
     7     4    24 1   
     8     5     6 1   
     9     5    25 1   
    10     6     7 2   
    11     6    10 1   
    12     7     8 1   
    13     8     9 ar  
    14     8    11 ar  
    15     9    14 ar  
    16     9    26 1   
    17    10    11 1   
    18    10    27 1   
    19    11    12 ar  
    20    12    13 ar  
    21    12    28 1   
    22    13    14 ar  
    23    13    29 1   
    24    14    15 1   
    25    15    16 2   
    26    15    17 1   
    27    17    18 2   
    28    17    21 1   
    29    18    19 1   
    30    18    30 1   
    31    19    20 2   
    32    19    31 1   
    33    20    21 1   
    34    20    32 1   
@<TRIPOS>SUBSTRUCTURE
     1 NW6         1 TEMP              0 ****  ****    0 ROOT
