@<TRIPOS>MOLECULE
NW7
   30    31     1     0     0
SMALL
No Charge or Current Charge


@<TRIPOS>ATOM
      1 N1          -3.9910     0.2230     0.0130 nc         1 NW7      -0.363300
      2 N3           2.5800    -1.9290     0.5740 nc         1 NW7      -0.435300
      3 C4          -2.2950    -1.1800     0.6160 cc         1 NW7       0.239300
      4 C5          -1.7380    -2.4290     1.2480 c3         1 NW7      -0.154400
      5 C6          -1.7350    -0.1060    -0.0290 cd         1 NW7      -0.309600
      6 C7          -0.3000     0.1470    -0.3060 c          1 NW7       0.665700
      7 C8           1.9220    -0.9070     0.0680 cd         1 NW7       0.403900
      8 C10          4.0320    -0.4470    -0.3870 cc         1 NW7       0.191300
      9 C1          -2.4910     3.2350    -0.1670 c3         1 NW7      -0.085100
     10 C11          5.3640     0.0940    -0.8130 c3         1 NW7      -0.137400
     11 C2          -2.8160     2.0460    -1.0970 c3         1 NW7      -0.120700
     12 C3          -2.8310     0.7190    -0.3750 cd         1 NW7       0.328300
     13 C9           2.7730     0.0370    -0.5360 cd         1 NW7      -0.240000
     14 N2           0.5560    -0.8240     0.1520 ns         1 NW7      -0.479400
     15 O1          -3.6560    -1.0120     0.6570 os         1 NW7      -0.064700
     16 O2           0.0890     1.1390    -0.8960 o          1 NW7      -0.563100
     17 O3           3.9660    -1.6440     0.2840 os         1 NW7      -0.064700
     18 H1          -1.0610    -2.1880     2.0760 hc         1 NW7       0.072700
     19 H2          -2.5460    -3.0460     1.6600 hc         1 NW7       0.072700
     20 H3          -1.2060    -3.0430     0.5120 hc         1 NW7       0.072700
     21 H4          -3.2380     3.3150     0.6320 hc         1 NW7       0.041033
     22 H5          -1.5050     3.1120     0.2960 hc         1 NW7       0.041033
     23 H6          -2.4900     4.1750    -0.7320 hc         1 NW7       0.041033
     24 H7           6.0120     0.2590     0.0550 hc         1 NW7       0.063700
     25 H8           5.8690    -0.6070    -1.4880 hc         1 NW7       0.063700
     26 H9           5.2480     1.0490    -1.3390 hc         1 NW7       0.063700
     27 H10         -3.7920     2.2280    -1.5640 hc         1 NW7       0.071700
     28 H11         -2.0980     2.0210    -1.9240 hc         1 NW7       0.071700
     29 H12          2.5090     0.9640    -1.0260 ha         1 NW7       0.175000
     30 H13          0.0980    -1.5860     0.6200 hn         1 NW7       0.338500
@<TRIPOS>BOND
     1     1    12 2   
     2     1    15 1   
     3     2     7 2   
     4     2    17 1   
     5     3     4 1   
     6     3     5 2   
     7     3    15 1   
     8     4    18 1   
     9     4    19 1   
    10     4    20 1   
    11     5     6 1   
    12     5    12 1   
    13     6    14 1   
    14     6    16 2   
    15     7    13 1   
    16     7    14 1   
    17     8    10 1   
    18     8    13 2   
    19     8    17 1   
    20     9    11 1   
    21     9    21 1   
    22     9    22 1   
    23     9    23 1   
    24    10    24 1   
    25    10    25 1   
    26    10    26 1   
    27    11    12 1   
    28    11    27 1   
    29    11    28 1   
    30    13    29 1   
    31    14    30 1   
@<TRIPOS>SUBSTRUCTURE
     1 NW7         1 TEMP              0 ****  ****    0 ROOT
