@<TRIPOS>MOLECULE
NW7
   30    31     1     0     0
SMALL
bcc


@<TRIPOS>ATOM
      1 N1          -3.9840     0.1550    -0.0250 nc         1 NW7      -0.363300
      2 N3           2.6210    -0.9950     1.2670 nc         1 NW7      -0.435300
      3 C4          -2.3690    -1.2920     0.4130 cc         1 NW7       0.349000
      4 C5          -1.8630    -2.6040     0.8800 c3         1 NW7      -0.154400
      5 C6          -1.7720    -0.1800    -0.1050 cd         1 NW7      -0.440200
      6 C7          -0.3580     0.0610    -0.4250 c          1 NW7       0.732700
      7 C8           1.9060    -0.4980     0.2950 cd         1 NW7       0.469200
      8 C10          3.9770    -0.2640    -0.3180 cc         1 NW7       0.301000
      9 C1          -2.1950     3.0790     0.0580 c3         1 NW7      -0.085100
     10 C11          5.3120    -0.0170    -0.9070 c3         1 NW7      -0.137400
     11 C2          -2.8290     2.0910    -0.9190 c3         1 NW7      -0.120700
     12 C3          -2.8610     0.7040    -0.3750 cd         1 NW7       0.393600
     13 C9           2.7210    -0.0090    -0.7590 cd         1 NW7      -0.388600
     14 N2           0.5320    -0.5350     0.4180 ns         1 NW7      -0.546400
     15 O1          -3.6780    -1.0890     0.4580 os         1 NW7      -0.109100
     16 O2          -0.0200     0.7450    -1.3720 o          1 NW7      -0.563100
     17 O3           3.9200    -0.8470     0.8810 os         1 NW7      -0.109100
     18 H1          -1.5690    -2.5590     1.9300 hc         1 NW7       0.072700
     19 H2          -2.6300    -3.3700     0.7820 hc         1 NW7       0.072700
     20 H3          -0.9960    -2.9130     0.3000 hc         1 NW7       0.072700
     21 H4          -2.7600     3.1280     0.9880 hc         1 NW7       0.041033
     22 H5          -1.1680     2.8080     0.3010 hc         1 NW7       0.041033
     23 H6          -2.1780     4.0780    -0.3780 hc         1 NW7       0.041033
     24 H7           5.9000     0.6540    -0.2810 hc         1 NW7       0.063700
     25 H8           5.8710    -0.9470    -1.0190 hc         1 NW7       0.063700
     26 H9           5.2030     0.4370    -1.8890 hc         1 NW7       0.063700
     27 H10         -3.8510     2.3970    -1.1450 hc         1 NW7       0.071700
     28 H11         -2.2760     2.0910    -1.8590 hc         1 NW7       0.071700
     29 H12          2.4330     0.4510    -1.6850 ha         1 NW7       0.193000
     30 H13          0.1890    -0.9450     1.2740 hn         1 NW7       0.338500
@<TRIPOS>BOND
     1     1    12 2   
     2     1    15 1   
     3     2     7 2   
     4     2    17 1   
     5     3     4 1   
     6     3     5 2   
     7     3    15 1   
     8     4    18 1   
     9     4    19 1   
    10     4    20 1   
    11     5     6 1   
    12     5    12 1   
    13     6    14 1   
    14     6    16 2   
    15     7    13 1   
    16     7    14 1   
    17     8    10 1   
    18     8    13 2   
    19     8    17 1   
    20     9    11 1   
    21     9    21 1   
    22     9    22 1   
    23     9    23 1   
    24    10    24 1   
    25    10    25 1   
    26    10    26 1   
    27    11    12 1   
    28    11    27 1   
    29    11    28 1   
    30    13    29 1   
    31    14    30 1   
@<TRIPOS>SUBSTRUCTURE
     1 NW7         1 TEMP              0 ****  ****    0 ROOT
