@<TRIPOS>MOLECULE
NW8
   35    38     1     0     0
SMALL
No Charge or Current Charge


@<TRIPOS>ATOM
      1 C12         24.9970     4.0780    12.4130 ca         1 NW8      -0.116500
      2 C11         24.7220     5.3490    12.9470 ca         1 NW8      -0.088500
      3 C10         24.1330     6.3570    12.1500 ca         1 NW8      -0.020800
      4 C02         23.8760     7.6900    12.7200 cc         1 NW8       0.129400
      5 C03         23.0660     8.6120    12.0960 cd         1 NW8      -0.271100
      6 C05         22.4060    10.8940    12.7420 cc         1 NW8      -0.108000
      7 C06         22.5910    11.8280    13.7580 cd         1 NW8      -0.141000
      8 C07         23.4100    11.5550    14.9150 cd         1 NW8      -0.100000
      9 C08         24.0200    10.3230    15.0020 cc         1 NW8       0.007000
     10 C09         23.8820     9.3530    14.0320 cd         1 NW8      -0.068000
     11 C13         24.6990     3.7980    11.0710 ca         1 NW8      -0.104000
     12 C14         24.1300     4.7940    10.2620 ca         1 NW8      -0.116500
     13 C15         23.8530     6.0650    10.7950 ca         1 NW8      -0.088500
     14 C16         24.8490    10.0500    16.1780 ca         1 NW8      -0.032000
     15 C17         25.9100    10.9150    16.5150 ca         1 NW8      -0.076000
     16 C18         26.7050    10.6590    17.6470 ca         1 NW8      -0.110000
     17 C19         26.4420     9.5380    18.4500 ca         1 NW8       0.128000
     18 C20         25.3860     8.6720    18.1250 ca         1 NW8      -0.110000
     19 C21         24.5910     8.9280    16.9930 ca         1 NW8      -0.076000
     20 N01         24.3790     8.1350    13.9130 nc         1 NW8      -0.293600
     21 N04         23.0830     9.6920    12.9540 na         1 NW8       0.134100
     22 Cl1         27.4360     9.2180    19.8650 cl         1 NW8      -0.204000
     23 H1          25.4440     3.3100    13.0410 ha         1 NW8       0.112000
     24 H2          24.9630     5.5450    13.9890 ha         1 NW8       0.120000
     25 H3          22.5040     8.5890    11.1720 h4         1 NW8       0.233000
     26 H4          21.8130    11.0130    11.8440 h4         1 NW8       0.146000
     27 H5          22.1020    12.7940    13.6770 ha         1 NW8       0.133000
     28 H6          23.5330    12.3000    15.6950 ha         1 NW8       0.127000
     29 H7          24.9130     2.8150    10.6570 ha         1 NW8       0.112000
     30 H8          23.9060     4.5830     9.2180 ha         1 NW8       0.112000
     31 H9          23.4260     6.8210    10.1400 ha         1 NW8       0.120000
     32 H10         26.1230    11.7830    15.8950 ha         1 NW8       0.127000
     33 H11         27.5230    11.3280    17.9010 ha         1 NW8       0.130000
     34 H12         25.1830     7.8050    18.7480 ha         1 NW8       0.130000
     35 H13         23.7710     8.2560    16.7490 ha         1 NW8       0.127000
@<TRIPOS>BOND
     1     1     2 ar  
     2     1    11 ar  
     3     1    23 1   
     4     2     3 ar  
     5     2    24 1   
     6     3     4 1   
     7     3    13 ar  
     8     4     5 2   
     9     4    20 1   
    10     5    21 1   
    11     5    25 1   
    12     6     7 2   
    13     6    21 1   
    14     6    26 1   
    15     7     8 1   
    16     7    27 1   
    17     8     9 2   
    18     8    28 1   
    19     9    10 1   
    20     9    14 1   
    21    10    20 2   
    22    10    21 1   
    23    11    12 ar  
    24    11    29 1   
    25    12    13 ar  
    26    12    30 1   
    27    13    31 1   
    28    14    15 ar  
    29    14    19 ar  
    30    15    16 ar  
    31    15    32 1   
    32    16    17 ar  
    33    16    33 1   
    34    17    18 ar  
    35    17    22 1   
    36    18    19 ar  
    37    18    34 1   
    38    19    35 1   
@<TRIPOS>SUBSTRUCTURE
     1 NW8         1 TEMP              0 ****  ****    0 ROOT
