@<TRIPOS>MOLECULE
NW8
   35    38     1     0     0
SMALL
bcc


@<TRIPOS>ATOM
      1 C12         25.1650     4.2240    12.4720 ca         1 NW8      -0.134500
      2 C11         24.8840     5.5080    12.9160 ca         1 NW8      -0.106500
      3 C10         24.1070     6.3720    12.1440 ca         1 NW8      -0.020800
      4 C02         23.8170     7.7250    12.6210 cc         1 NW8       0.129400
      5 C03         23.0670     8.6960    12.0000 cd         1 NW8      -0.221100
      6 C05         22.5320    11.0050    12.7060 cc         1 NW8      -0.075300
      7 C06         22.7270    11.9210    13.6860 cd         1 NW8      -0.159000
      8 C07         23.4980    11.5940    14.8270 cd         1 NW8      -0.118000
      9 C08         24.0690    10.3570    14.9770 cc         1 NW8       0.007000
     10 C09         23.8620     9.4090    13.9390 cd         1 NW8      -0.017300
     11 C13         24.6740     3.7810    11.2510 ca         1 NW8      -0.122000
     12 C14         23.8980     4.6340    10.4750 ca         1 NW8      -0.134500
     13 C15         23.6170     5.9170    10.9170 ca         1 NW8      -0.106500
     14 C16         24.8760    10.0110    16.1600 ca         1 NW8      -0.032000
     15 C17         25.7260    10.9610    16.7270 ca         1 NW8      -0.094000
     16 C18         26.4710    10.6740    17.8600 ca         1 NW8      -0.128000
     17 C19         26.3660     9.4180    18.4360 ca         1 NW8       0.036400
     18 C20         25.5320     8.4540    17.8940 ca         1 NW8      -0.128000
     19 C21         24.7950     8.7530    16.7590 ca         1 NW8      -0.094000
     20 N01         24.3010     8.1750    13.8080 nc         1 NW8      -0.293600
     21 N04         23.0980     9.7730    12.8420 na         1 NW8       0.032700
     22 CL1         27.2950     9.0470    19.8510 cl         1 NW8      -0.112400
     23 H1          25.7700     3.5670    13.0830 ha         1 NW8       0.130000
     24 H2          25.2690     5.8460    13.8680 ha         1 NW8       0.138000
     25 H3          22.5340     8.7250    11.0650 h4         1 NW8       0.183000
     26 H4          21.9530    11.1830    11.8130 h4         1 NW8       0.164000
     27 H5          22.2800    12.9000    13.5920 ha         1 NW8       0.151000
     28 H6          23.6180    12.3380    15.6040 ha         1 NW8       0.145000
     29 H7          24.8930     2.7790    10.9060 ha         1 NW8       0.130000
     30 H8          23.5090     4.3010     9.5220 ha         1 NW8       0.130000
     31 H9          23.0090     6.5650    10.2990 ha         1 NW8       0.138000
     32 H10         25.8280    11.9390    16.2750 ha         1 NW8       0.145000
     33 H11         27.1310    11.4210    18.2800 ha         1 NW8       0.148000
     34 H12         25.4510     7.4760    18.3490 ha         1 NW8       0.148000
     35 H13         24.1470     7.9940    16.3450 ha         1 NW8       0.145000
@<TRIPOS>BOND
     1     1     2 ar  
     2     1    11 ar  
     3     1    23 1   
     4     2     3 ar  
     5     2    24 1   
     6     3     4 1   
     7     3    13 ar  
     8     4     5 2   
     9     4    20 1   
    10     5    21 1   
    11     5    25 1   
    12     6     7 2   
    13     6    21 1   
    14     6    26 1   
    15     7     8 1   
    16     7    27 1   
    17     8     9 2   
    18     8    28 1   
    19     9    10 1   
    20     9    14 1   
    21    10    20 2   
    22    10    21 1   
    23    11    12 ar  
    24    11    29 1   
    25    12    13 ar  
    26    12    30 1   
    27    13    31 1   
    28    14    15 ar  
    29    14    19 ar  
    30    15    16 ar  
    31    15    32 1   
    32    16    17 ar  
    33    16    33 1   
    34    17    18 ar  
    35    17    22 1   
    36    18    19 ar  
    37    18    34 1   
    38    19    35 1   
@<TRIPOS>SUBSTRUCTURE
     1 NW8         1 TEMP              0 ****  ****    0 ROOT
