@<TRIPOS>MOLECULE
NW9
   56    59     1     0     0
SMALL
abcg2


@<TRIPOS>ATOM
      1 C10         -2.8860    -2.6640    87.1900 c          1 NW9       0.595600
      2 C15         -5.2900    -2.2090    87.4670 c3         1 NW9       0.079700
      3 C17         -2.1860    -0.1740    90.5970 c3         1 NW9       0.087300
      4 C20          4.0840    -6.5740    86.2850 c6         1 NW9      -0.095900
      5 C21          4.7130    -6.5160    87.6890 c6         1 NW9      -0.071400
      6 C22          3.9360    -5.5680    88.6250 c6         1 NW9      -0.095900
      7 C26         -5.9890    -3.2510    88.2610 cc         1 NW9       0.098300
      8 C28         -6.3740    -5.3230    88.9040 cc         1 NW9       0.132900
      9 C1           0.8900    -2.7260    87.4550 ca         1 NW9      -0.158300
     10 C2           1.0380    -1.9080    88.5750 ca         1 NW9      -0.020000
     11 C3          -0.0300    -1.3290    89.2200 ca         1 NW9      -0.187000
     12 C4          -1.3240    -1.5740    88.7540 ca         1 NW9       0.131600
     13 C5          -1.5090    -2.3900    87.6190 ca         1 NW9      -0.214600
     14 C6          -0.3920    -2.9470    86.9380 ca         1 NW9       0.061700
     15 C8          -3.7050    -1.1640    88.9880 c          1 NW9       0.622000
     16 C11         -0.5760    -3.7340    85.6660 c3         1 NW9      -0.066800
     17 C12          2.1710    -3.3000    86.8730 c3         1 NW9       0.240600
     18 C18          2.3000    -4.8370    86.8250 c6         1 NW9      -0.085700
     19 C19          3.4940    -5.2270    85.9120 c6         1 NW9       0.178800
     20 C23          2.4710    -5.5030    88.2090 c6         1 NW9       0.178800
     21 C29         -7.2470    -4.5450    89.5900 cd         1 NW9      -0.193000
     22 C30         -6.9940    -3.1970    89.1730 cd         1 NW9      -0.149000
     23 N7          -2.4100    -1.0020    89.4110 n          1 NW9      -0.305000
     24 N9          -3.8920    -1.9900    87.8890 n          1 NW9      -0.378400
     25 O13         -3.2050    -3.4310    86.2920 o          1 NW9      -0.521000
     26 O14          2.3870    -2.8130    85.5270 oh         1 NW9      -0.694000
     27 O16         -4.6560    -0.6250    89.5390 o          1 NW9      -0.564000
     28 O24          3.1000    -5.2660    84.5370 oh         1 NW9      -0.665000
     29 O25          1.6630    -4.8340    89.1790 oh         1 NW9      -0.665000
     30 O27         -5.5990    -4.5530    88.0850 os         1 NW9      -0.240000
     31 H1          -5.8220    -1.2700    87.5810 h1         1 NW9       0.088700
     32 H2          -5.2580    -2.4810    86.4160 h1         1 NW9       0.088700
     33 H3          -3.1500     0.1460    90.9690 h1         1 NW9       0.058033
     34 H4          -1.6710    -0.7530    91.3630 h1         1 NW9       0.058033
     35 H5          -1.5870     0.7000    90.3410 h1         1 NW9       0.058033
     36 H7           4.8340    -6.8500    85.5410 hc         1 NW9       0.050700
     37 H8           4.7350    -7.5210    88.1140 hc         1 NW9       0.044200
     38 H9           5.7490    -6.1820    87.6140 hc         1 NW9       0.044200
     39 H10          4.0010    -5.9180    89.6580 hc         1 NW9       0.050700
     40 H11          4.3620    -4.5620    88.6040 hc         1 NW9       0.050700
     41 H12         -6.1800    -6.3820    88.8800 h4         1 NW9       0.051100
     42 H13          2.0350    -1.7280    88.9590 ha         1 NW9       0.114000
     43 H14          0.1430    -0.6980    90.0760 ha         1 NW9       0.124000
     44 H15         -1.0290    -4.7060    85.8650 hc         1 NW9       0.064700
     45 H16         -1.2470    -3.2140    84.9870 hc         1 NW9       0.064700
     46 H17          0.3720    -3.8800    85.1660 hc         1 NW9       0.064700
     47 H18          2.9920    -2.9280    87.4930 h1         1 NW9       0.036700
     48 H19          1.4060    -5.2580    86.3660 hc         1 NW9       0.079700
     49 H20          4.2790    -4.4700    86.0290 h1         1 NW9       0.036200
     50 H21          2.1070    -6.5320    88.1110 h1         1 NW9       0.036200
     51 H22         -7.9790    -4.8820    90.3050 ha         1 NW9       0.140000
     52 H23         -7.4900    -2.3030    89.5120 ha         1 NW9       0.147000
     53 H24          2.3230    -1.8500    85.5410 ho         1 NW9       0.455000
     54 H25          2.7800    -4.3750    84.3330 ho         1 NW9       0.453500
     55 H26          1.7710    -5.3000    90.0170 ho         1 NW9       0.453500
     56 H6           3.2990    -7.3340    86.2420 hc         1 NW9       0.050700
@<TRIPOS>BOND
     1     1    13 1   
     2     1    24 1   
     3     1    25 2   
     4     2     7 1   
     5     2    24 1   
     6     2    31 1   
     7     2    32 1   
     8     3    23 1   
     9     3    33 1   
    10     3    34 1   
    11     3    35 1   
    12     4     5 1   
    13     4    19 1   
    14     4    36 1   
    15     4    56 1   
    16     5     6 1   
    17     5    37 1   
    18     5    38 1   
    19     6    20 1   
    20     6    39 1   
    21     6    40 1   
    22     7    22 2   
    23     7    30 1   
    24     8    21 2   
    25     8    30 1   
    26     8    41 1   
    27     9    10 ar  
    28     9    14 ar  
    29     9    17 1   
    30    10    11 ar  
    31    10    42 1   
    32    11    12 ar  
    33    11    43 1   
    34    12    13 ar  
    35    12    23 1   
    36    13    14 ar  
    37    14    16 1   
    38    15    23 1   
    39    15    24 1   
    40    15    27 2   
    41    16    44 1   
    42    16    45 1   
    43    16    46 1   
    44    17    18 1   
    45    17    26 1   
    46    17    47 1   
    47    18    19 1   
    48    18    20 1   
    49    18    48 1   
    50    19    28 1   
    51    19    49 1   
    52    20    29 1   
    53    20    50 1   
    54    21    22 1   
    55    21    51 1   
    56    22    52 1   
    57    26    53 1   
    58    28    54 1   
    59    29    55 1   
@<TRIPOS>SUBSTRUCTURE
     1 NW9         1 TEMP              0 ****  ****    0 ROOT
