@<TRIPOS>MOLECULE
NW9
   56    59     1     0     0
SMALL
No Charge or Current Charge


@<TRIPOS>ATOM
      1 C10         -3.0020    -2.7030    87.2500 c          1 NW9       0.595600
      2 C15         -5.4230    -2.1710    87.4080 c3         1 NW9       0.079700
      3 C17         -2.2690    -0.1360    90.6300 c3         1 NW9       0.087300
      4 C20          4.0770    -6.6660    86.3020 c6         1 NW9      -0.095900
      5 C21          4.7150    -6.6860    87.7210 c6         1 NW9      -0.071400
      6 C22          4.0940    -5.6250    88.6760 c6         1 NW9      -0.095900
      7 C26         -6.0700    -3.3080    88.1560 cc         1 NW9       0.098300
      8 C28         -7.1520    -5.2270    88.3720 cc         1 NW9       0.132900
      9 C1           0.8920    -2.6550    87.4020 ca         1 NW9      -0.158300
     10 C2           1.0530    -1.7300    88.4460 ca         1 NW9      -0.020000
     11 C3          -0.0480    -1.1590    89.0770 ca         1 NW9      -0.187000
     12 C4          -1.3580    -1.5360    88.7320 ca         1 NW9       0.131600
     13 C5          -1.5630    -2.4070    87.6400 ca         1 NW9      -0.214600
     14 C6          -0.4300    -2.9660    86.9500 ca         1 NW9       0.061700
     15 C8          -3.7930    -1.0330    88.8900 c          1 NW9       0.622000
     16 C11         -0.6340    -3.8460    85.7050 c3         1 NW9      -0.066800
     17 C12          2.1980    -3.2290    86.8120 c3         1 NW9       0.240600
     18 C18          2.3980    -4.7950    86.8970 c6         1 NW9      -0.085700
     19 C19          3.5640    -5.2510    85.9520 c6         1 NW9       0.178800
     20 C23          2.6000    -5.3850    88.3470 c6         1 NW9       0.178800
     21 C29         -6.8950    -4.7640    89.6340 cd         1 NW9      -0.193000
     22 C30         -6.2070    -3.5420    89.4970 cd         1 NW9      -0.149000
     23 N7          -2.4780    -0.8950    89.3650 n          1 NW9      -0.305000
     24 N9          -4.0130    -1.9400    87.8510 n          1 NW9      -0.378400
     25 O13         -3.3060    -3.5900    86.4640 o          1 NW9      -0.521000
     26 O14          2.3420    -2.7210    85.4760 oh         1 NW9      -0.694000
     27 O16         -4.7190    -0.4040    89.3860 o          1 NW9      -0.564000
     28 O24          3.1340    -5.1970    84.5940 oh         1 NW9      -0.665000
     29 O25          2.0090    -4.5820    89.3700 oh         1 NW9      -0.665000
     30 O27         -6.6510    -4.3370    87.4470 os         1 NW9      -0.240000
     31 H1          -6.0270    -1.2650    87.5470 h1         1 NW9       0.088700
     32 H2          -5.4470    -2.3870    86.3320 h1         1 NW9       0.088700
     33 H3          -3.2020    -0.0140    91.1940 h1         1 NW9       0.058033
     34 H4          -1.5670    -0.6760    91.2780 h1         1 NW9       0.058033
     35 H5          -1.8610     0.8570    90.4010 h1         1 NW9       0.058033
     36 H7           4.8160    -7.0010    85.5620 hc         1 NW9       0.050700
     37 H8           4.5990    -7.6900    88.1520 hc         1 NW9       0.044200
     38 H9           5.7970    -6.5100    87.6470 hc         1 NW9       0.044200
     39 H10          4.2140    -5.9580    89.7160 hc         1 NW9       0.050700
     40 H11          4.6440    -4.6770    88.5910 hc         1 NW9       0.050700
     41 H12         -7.6510    -6.1150    88.0080 h4         1 NW9       0.051100
     42 H13          2.0490    -1.4450    88.7790 ha         1 NW9       0.114000
     43 H14          0.1470    -0.4310    89.8590 ha         1 NW9       0.124000
     44 H15         -1.0490    -4.8240    85.9770 hc         1 NW9       0.064700
     45 H16         -1.3140    -3.3660    84.9920 hc         1 NW9       0.064700
     46 H17          0.2710    -4.0370    85.1270 hc         1 NW9       0.064700
     47 H18          3.0320    -2.8200    87.3980 h1         1 NW9       0.036700
     48 H19          1.4780    -5.2570    86.5270 hc         1 NW9       0.079700
     49 H20          4.4080    -4.5570    86.0870 h1         1 NW9       0.036200
     50 H21          2.1150    -6.3730    88.3620 h1         1 NW9       0.036200
     51 H22         -7.1730    -5.2540    90.5610 ha         1 NW9       0.140000
     52 H23         -5.8500    -2.9030    90.2990 ha         1 NW9       0.147000
     53 H24          2.1890    -1.7520    85.5350 ho         1 NW9       0.455000
     54 H25          2.7640    -4.2810    84.5190 ho         1 NW9       0.453500
     55 H26          2.0680    -5.0960    90.2040 ho         1 NW9       0.453500
     56 H6           3.2440    -7.3820    86.2550 hc         1 NW9       0.050700
@<TRIPOS>BOND
     1     1    13 1   
     2     1    24 1   
     3     1    25 2   
     4     2     7 1   
     5     2    24 1   
     6     2    31 1   
     7     2    32 1   
     8     3    23 1   
     9     3    33 1   
    10     3    34 1   
    11     3    35 1   
    12     4     5 1   
    13     4    19 1   
    14     4    36 1   
    15     4    56 1   
    16     5     6 1   
    17     5    37 1   
    18     5    38 1   
    19     6    20 1   
    20     6    39 1   
    21     6    40 1   
    22     7    22 2   
    23     7    30 1   
    24     8    21 2   
    25     8    30 1   
    26     8    41 1   
    27     9    10 ar  
    28     9    14 ar  
    29     9    17 1   
    30    10    11 ar  
    31    10    42 1   
    32    11    12 ar  
    33    11    43 1   
    34    12    13 ar  
    35    12    23 1   
    36    13    14 ar  
    37    14    16 1   
    38    15    23 1   
    39    15    24 1   
    40    15    27 2   
    41    16    44 1   
    42    16    45 1   
    43    16    46 1   
    44    17    18 1   
    45    17    26 1   
    46    17    47 1   
    47    18    19 1   
    48    18    20 1   
    49    18    48 1   
    50    19    28 1   
    51    19    49 1   
    52    20    29 1   
    53    20    50 1   
    54    21    22 1   
    55    21    51 1   
    56    22    52 1   
    57    26    53 1   
    58    28    54 1   
    59    29    55 1   
@<TRIPOS>SUBSTRUCTURE
     1 NW9         1 TEMP              0 ****  ****    0 ROOT
