@<TRIPOS>MOLECULE
NWA
   31    30     1     0     0
SMALL
No Charge or Current Charge


@<TRIPOS>ATOM
      1 N1          -2.6570    -0.0140     0.0370 n4         1 NWA      -0.497000
      2 C2          -1.3200    -0.2960    -0.6700 c3         1 NWA       0.097600
      3 C3          -0.0210     0.0530     0.0870 c3         1 NWA      -0.093400
      4 C5           2.6030     0.0020    -0.0410 c3         1 NWA       0.405000
      5 O7           2.7320    -0.8010     1.1040 oh         1 NWA      -0.678500
      6 O8           3.6450    -0.4130    -0.8850 oh         1 NWA      -0.678500
      7 C6           2.8260     1.4780     0.3430 c3         1 NWA      -0.118100
      8 C8          -2.7990     1.4850     0.3440 c3         1 NWA       0.075233
      9 C9          -3.8030    -0.4390    -0.8920 c3         1 NWA       0.075233
     10 C10         -2.7550    -0.8170     1.3430 c3         1 NWA       0.075233
     11 C4           1.2470    -0.2740    -0.7440 c3         1 NWA      -0.103400
     12 H2C1        -1.3290     0.2580    -1.6120 hx         1 NWA       0.093700
     13 H2C2        -1.3010    -1.3610    -0.9140 hx         1 NWA       0.093700
     14 H3C1         0.0070    -0.5000     1.0330 hc         1 NWA       0.068700
     15 H3C2        -0.0300     1.1200     0.3360 hc         1 NWA       0.068700
     16 H7           2.3530    -1.6690     0.8550 ho         1 NWA       0.465000
     17 H8           4.4510     0.0210    -0.5370 ho         1 NWA       0.465000
     18 H6C1         2.7290     2.1260    -0.5360 hc         1 NWA       0.056700
     19 H6C2         2.0940     1.8030     1.0910 hc         1 NWA       0.056700
     20 H6C3         3.8240     1.6280     0.7720 hc         1 NWA       0.056700
     21 H8C1        -2.7190     2.0530    -0.5860 hx         1 NWA       0.097589
     22 H8C2        -3.7730     1.6680     0.8030 hx         1 NWA       0.097589
     23 H8C3        -2.0080     1.7910     1.0310 hx         1 NWA       0.097589
     24 H9C1        -3.7150    -1.5050    -1.1100 hx         1 NWA       0.097589
     25 H9C2        -4.7580    -0.2430    -0.4000 hx         1 NWA       0.097589
     26 H9C3        -3.7460     0.1320    -1.8210 hx         1 NWA       0.097589
     27 H101        -1.9650    -0.4990     2.0250 hx         1 NWA       0.097589
     28 H102        -3.7290    -0.6370     1.8050 hx         1 NWA       0.097589
     29 H103        -2.6450    -1.8810     1.1220 hx         1 NWA       0.097589
     30 H4C1         1.2150     0.3080    -1.6740 hc         1 NWA       0.068700
     31 H4C2         1.2100    -1.3280    -1.0450 hc         1 NWA       0.068700
@<TRIPOS>BOND
     1     1     2 1   
     2     1     8 1   
     3     1     9 1   
     4     1    10 1   
     5     2     3 1   
     6     2    12 1   
     7     2    13 1   
     8     3    11 1   
     9     3    14 1   
    10     3    15 1   
    11     4     5 1   
    12     4     6 1   
    13     4     7 1   
    14     4    11 1   
    15     5    16 1   
    16     6    17 1   
    17     7    18 1   
    18     7    19 1   
    19     7    20 1   
    20     8    21 1   
    21     8    22 1   
    22     8    23 1   
    23     9    24 1   
    24     9    25 1   
    25     9    26 1   
    26    10    27 1   
    27    10    28 1   
    28    10    29 1   
    29    11    30 1   
    30    11    31 1   
@<TRIPOS>SUBSTRUCTURE
     1 NWA         1 TEMP              0 ****  ****    0 ROOT
