@<TRIPOS>MOLECULE
NWA
   31    30     1     0     0
SMALL
bcc


@<TRIPOS>ATOM
      1 N1          -2.5920     0.0020     0.0350 n4         1 NWA      -0.609800
      2 C2          -1.2890    -0.2800    -0.6680 c3         1 NWA       0.125800
      3 C3          -0.0380    -0.0180     0.1480 c3         1 NWA      -0.093400
      4 C5           2.5210    -0.0000    -0.0440 c3         1 NWA       0.358600
      5 O7           2.6320    -0.7770     1.1210 oh         1 NWA      -0.616300
      6 O8           3.4900    -0.3750    -0.9900 oh         1 NWA      -0.616300
      7 C6           2.7150     1.4480     0.3830 c3         1 NWA      -0.118100
      8 C8          -2.7500     1.4620     0.2800 c3         1 NWA       0.103433
      9 C9          -3.6970    -0.4540    -0.8550 c3         1 NWA       0.103433
     10 C10         -2.6800    -0.7300     1.3280 c3         1 NWA       0.103433
     11 C4           1.1790    -0.2260    -0.7480 c3         1 NWA      -0.103400
     12 H2C1        -1.3000     0.3350    -1.5690 hx         1 NWA       0.093700
     13 H2C2        -1.3280    -1.3260    -0.9740 hx         1 NWA       0.093700
     14 H3C1         0.0100    -0.6990     0.9990 hc         1 NWA       0.068700
     15 H3C2        -0.0400     0.9990     0.5440 hc         1 NWA       0.068700
     16 H7           2.4540    -1.6990     0.8990 ho         1 NWA       0.426000
     17 H8           4.3610    -0.1190    -0.6640 ho         1 NWA       0.426000
     18 H6C1         2.6180     2.1100    -0.4770 hc         1 NWA       0.056700
     19 H6C2         1.9860     1.7580     1.1310 hc         1 NWA       0.056700
     20 H6C3         3.7080     1.5940     0.8130 hc         1 NWA       0.056700
     21 H8C1        -2.6600     1.9940    -0.6630 hx         1 NWA       0.097589
     22 H8C2        -3.7320     1.6410     0.7090 hx         1 NWA       0.097589
     23 H8C3        -1.9880     1.8060     0.9720 hx         1 NWA       0.097589
     24 H9C1        -3.6200    -1.5290    -0.9990 hx         1 NWA       0.097589
     25 H9C2        -4.6500    -0.2110    -0.3940 hx         1 NWA       0.097589
     26 H9C3        -3.6150     0.0510    -1.8130 hx         1 NWA       0.097589
     27 H101        -1.9690    -0.3140     2.0350 hx         1 NWA       0.097589
     28 H102        -3.6840    -0.6170     1.7250 hx         1 NWA       0.097589
     29 H103        -2.4640    -1.7820     1.1600 hx         1 NWA       0.097589
     30 H4C1         1.1230     0.4480    -1.6070 hc         1 NWA       0.068700
     31 H4C2         1.1630    -1.2460    -1.1490 hc         1 NWA       0.068700
@<TRIPOS>BOND
     1     1     2 1   
     2     1     8 1   
     3     1     9 1   
     4     1    10 1   
     5     2     3 1   
     6     2    12 1   
     7     2    13 1   
     8     3    11 1   
     9     3    14 1   
    10     3    15 1   
    11     4     5 1   
    12     4     6 1   
    13     4     7 1   
    14     4    11 1   
    15     5    16 1   
    16     6    17 1   
    17     7    18 1   
    18     7    19 1   
    19     7    20 1   
    20     8    21 1   
    21     8    22 1   
    22     8    23 1   
    23     9    24 1   
    24     9    25 1   
    25     9    26 1   
    26    10    27 1   
    27    10    28 1   
    28    10    29 1   
    29    11    30 1   
    30    11    31 1   
@<TRIPOS>SUBSTRUCTURE
     1 NWA         1 TEMP              0 ****  ****    0 ROOT
