@<TRIPOS>MOLECULE
NWB
   28    27     1     0     0
SMALL
No Charge or Current Charge


@<TRIPOS>ATOM
      1 N1          -2.1770    -0.0040    -0.0210 n4         1 NWB      -0.495000
      2 C2          -0.9170    -0.8270     0.2920 c3         1 NWB       0.096600
      3 C3           0.4400    -0.0900     0.2950 c3         1 NWB      -0.086400
      4 C5           2.9610    -0.2870     0.6220 c          1 NWB       0.576100
      5 O7           3.3440     0.3450     1.5980 o          1 NWB      -0.505100
      6 C6           3.7720    -0.3320    -0.6700 c3         1 NWB      -0.197100
      7 C10         -2.0850     0.6110    -1.4260 c3         1 NWB       0.074567
      8 C8          -3.3970    -0.9340     0.0330 c3         1 NWB       0.074567
      9 C14          1.6220    -1.0350     0.6220 c3         1 NWB      -0.195400
     10 C9          -2.3610     1.1140     1.0180 c3         1 NWB       0.074567
     11 H2C1        -0.8680    -1.6350    -0.4430 hx         1 NWB       0.091200
     12 HA2         -1.0630    -1.2830     1.2740 hx         1 NWB       0.091200
     13 HA1          0.4130     0.7200     1.0330 hc         1 NWB       0.076200
     14 HB2          0.6060     0.3730    -0.6860 hc         1 NWB       0.076200
     15 H6C1         4.6830     0.2750    -0.6180 hc         1 NWB       0.073367
     16 H6C2         3.9970    -1.3770    -0.9090 hc         1 NWB       0.073367
     17 H63          3.1300    -0.0350    -1.5060 hc         1 NWB       0.073367
     18 H101        -1.9440    -0.1860    -2.1600 hx         1 NWB       0.098033
     19 H102        -3.0090     1.1510    -1.6440 hx         1 NWB       0.098033
     20 H103        -1.2410     1.3020    -1.4660 hx         1 NWB       0.098033
     21 H8C1        -3.4740    -1.3700     1.0310 hx         1 NWB       0.098033
     22 H8C2        -4.2990    -0.3590    -0.1870 hx         1 NWB       0.098033
     23 H8C3        -3.2780    -1.7280    -0.7060 hx         1 NWB       0.098033
     24 H141         1.6450    -1.8170    -0.1470 hc         1 NWB       0.072700
     25 H142         1.4600    -1.4780     1.6120 hc         1 NWB       0.072700
     26 H9C1        -1.5150     1.8020     0.9650 hx         1 NWB       0.098033
     27 H9C2        -3.2850     1.6560     0.8040 hx         1 NWB       0.098033
     28 H9C3        -2.4160     0.6740     2.0160 hx         1 NWB       0.098033
@<TRIPOS>BOND
     1     1     2 1   
     2     1     7 1   
     3     1     8 1   
     4     1    10 1   
     5     2     3 1   
     6     2    11 1   
     7     2    12 1   
     8     3     9 1   
     9     3    13 1   
    10     3    14 1   
    11     4     5 2   
    12     4     6 1   
    13     4     9 1   
    14     6    15 1   
    15     6    16 1   
    16     6    17 1   
    17     7    18 1   
    18     7    19 1   
    19     7    20 1   
    20     8    21 1   
    21     8    22 1   
    22     8    23 1   
    23     9    24 1   
    24     9    25 1   
    25    10    26 1   
    26    10    27 1   
    27    10    28 1   
@<TRIPOS>SUBSTRUCTURE
     1 NWB         1 TEMP              0 ****  ****    0 ROOT
