@<TRIPOS>MOLECULE
NWB
   28    27     1     0     0
SMALL
bcc


@<TRIPOS>ATOM
      1 N1          -2.2190     0.0190     0.0340 n4         1 NWB      -0.607800
      2 C2          -0.9080    -0.7220     0.0360 c3         1 NWB       0.124800
      3 C3           0.3330     0.1500     0.0300 c3         1 NWB      -0.086400
      4 C5           2.8710    -0.0020     0.0350 c          1 NWB       0.576100
      5 O7           2.9210     1.2060     0.0870 o          1 NWB      -0.505100
      6 C6           4.1030    -0.8590    -0.0460 c3         1 NWB      -0.197100
      7 C10         -2.3570     0.8590    -1.1870 c3         1 NWB       0.102767
      8 C8          -3.3130    -0.9920     0.0420 c3         1 NWB       0.102767
      9 C14          1.5600    -0.7500     0.0400 c3         1 NWB      -0.195400
     10 C9          -2.3510     0.8720     1.2470 c3         1 NWB       0.102767
     11 H2C1        -0.9260    -1.3690    -0.8430 hx         1 NWB       0.091200
     12 HA2         -0.9230    -1.3600     0.9210 hx         1 NWB       0.091200
     13 HA1          0.3560     0.8010     0.9040 hc         1 NWB       0.076200
     14 HB2          0.3590     0.7860    -0.8560 hc         1 NWB       0.076200
     15 H6C1         5.0090    -0.2670     0.0520 hc         1 NWB       0.073367
     16 H6C2         4.0870    -1.6280     0.7280 hc         1 NWB       0.073367
     17 H63          4.1210    -1.3820    -1.0050 hc         1 NWB       0.073367
     18 H101        -2.2210     0.2340    -2.0660 hx         1 NWB       0.098033
     19 H102        -3.3510     1.2960    -1.2010 hx         1 NWB       0.098033
     20 H103        -1.6180     1.6540    -1.1790 hx         1 NWB       0.098033
     21 H8C1        -3.2280    -1.6050     0.9350 hx         1 NWB       0.098033
     22 H8C2        -4.2710    -0.4780     0.0400 hx         1 NWB       0.098033
     23 H8C3        -3.2290    -1.6160    -0.8430 hx         1 NWB       0.098033
     24 H141         1.5550    -1.4310    -0.8180 hc         1 NWB       0.072700
     25 H142         1.5560    -1.4010     0.9210 hc         1 NWB       0.072700
     26 H9C1        -1.6140     1.6680     1.2270 hx         1 NWB       0.098033
     27 H9C2        -3.3470     1.3080     1.2600 hx         1 NWB       0.098033
     28 H9C3        -2.2110     0.2570     2.1310 hx         1 NWB       0.098033
@<TRIPOS>BOND
     1     1     2 1   
     2     1     7 1   
     3     1     8 1   
     4     1    10 1   
     5     2     3 1   
     6     2    11 1   
     7     2    12 1   
     8     3     9 1   
     9     3    13 1   
    10     3    14 1   
    11     4     5 2   
    12     4     6 1   
    13     4     9 1   
    14     6    15 1   
    15     6    16 1   
    16     6    17 1   
    17     7    18 1   
    18     7    19 1   
    19     7    20 1   
    20     8    21 1   
    21     8    22 1   
    22     8    23 1   
    23     9    24 1   
    24     9    25 1   
    25    10    26 1   
    26    10    27 1   
    27    10    28 1   
@<TRIPOS>SUBSTRUCTURE
     1 NWB         1 TEMP              0 ****  ****    0 ROOT
