@<TRIPOS>MOLECULE
NWD
   24    24     1     0     0
SMALL
No Charge or Current Charge


@<TRIPOS>ATOM
      1 N1          -0.2050    -0.3630    -0.5190 n          1 NWD      -0.268000
      2 O1           2.9580     2.3900    -0.5450 o          1 NWD      -0.416000
      3 C2           0.2020    -1.7120    -0.5070 c          1 NWD       0.607000
      4 N2           3.0680     1.3500     0.1120 no         1 NWD       0.717100
      5 O2          -0.5590    -2.6510    -0.6710 o          1 NWD      -0.518000
      6 N3           1.5260    -1.9290    -0.3000 ns         1 NWD      -0.481500
      7 O3           3.7540     1.2600     1.1360 o          1 NWD      -0.416000
      8 C4           2.5130    -1.0210    -0.0980 c          1 NWD       0.621200
      9 O4           3.6690    -1.3850     0.0350 o          1 NWD      -0.498000
     10 C5           2.0520     0.3690    -0.0840 cc         1 NWD      -0.434300
     11 C6           0.7220     0.6560    -0.3190 cd         1 NWD       0.111600
     12 C7          -1.6350    -0.0270    -0.7650 c3         1 NWD       0.049000
     13 C8          -2.4080     0.4350     0.5010 c3         1 NWD       0.008500
     14 N8          -2.3410    -0.6070     1.5970 n8         1 NWD      -0.984200
     15 C9          -3.8520     0.9280     0.0870 c          1 NWD       0.729000
     16 O91         -4.6210     0.1200    -0.4180 o          1 NWD      -0.706500
     17 O92         -4.1570     2.0900     0.3230 o          1 NWD      -0.706500
     18 HN3          1.8160    -2.8940    -0.3060 hn         1 NWD       0.340500
     19 H6           0.3020     1.6610    -0.3570 h4         1 NWD       0.254000
     20 H7          -1.6750     0.7770    -1.5120 h1         1 NWD       0.086200
     21 H7A         -2.1550    -0.8850    -1.2120 h1         1 NWD       0.086200
     22 H8          -1.8860     1.3220     0.8860 h1         1 NWD       0.047700
     23 HN8         -2.8490    -1.4470     1.2920 hn         1 NWD       0.385000
     24 HN8A        -1.3720    -0.9300     1.7010 hn         1 NWD       0.385000
@<TRIPOS>BOND
     1     1     3 1   
     2     1    11 1   
     3     1    12 1   
     4     2     4 1   
     5     3     5 2   
     6     3     6 1   
     7     4     7 1   
     8     4    10 1   
     9     6     8 1   
    10     6    18 1   
    11     8     9 2   
    12     8    10 1   
    13    10    11 2   
    14    11    19 1   
    15    12    13 1   
    16    12    20 1   
    17    12    21 1   
    18    13    14 1   
    19    13    15 1   
    20    13    22 1   
    21    14    23 1   
    22    14    24 1   
    23    15    16 1   
    24    15    17 1   
@<TRIPOS>SUBSTRUCTURE
     1 NWD         1 TEMP              0 ****  ****    0 ROOT
