@<TRIPOS>MOLECULE
NWD
   24    24     1     0     0
SMALL
bcc


@<TRIPOS>ATOM
      1 N1          -0.1990    -0.3240    -0.5690 n          1 NWD      -0.335000
      2 O1           2.4740     2.5410     0.1330 o          1 NWD      -0.226000
      3 C2           0.1280    -1.6790    -0.5670 c          1 NWD       0.816500
      4 N2           2.9190     1.4130     0.2050 no         1 NWD       0.337100
      5 O2          -0.6770    -2.5460    -0.8020 o          1 NWD      -0.593500
      6 N3           1.4390    -1.9400    -0.2820 ns         1 NWD      -0.615500
      7 O3           4.0690     1.1650     0.4750 o          1 NWD      -0.226000
      8 C4           2.4750    -1.0610    -0.0030 c          1 NWD       0.763700
      9 O4           3.5830    -1.4850     0.2280 o          1 NWD      -0.573500
     10 C5           2.0270     0.3230    -0.0410 cc         1 NWD      -0.434300
     11 C6           0.7250     0.6060    -0.3160 cd         1 NWD       0.161600
     12 C7          -1.5880     0.0910    -0.8090 c3         1 NWD       0.049000
     13 C8          -2.3320     0.4160     0.4990 c3         1 NWD       0.008500
     14 N8          -2.2960    -0.6170     1.5060 n8         1 NWD      -0.873800
     15 C9          -3.7820     0.7920     0.0960 c          1 NWD       0.939600
     16 O91         -4.6970     0.0550     0.4980 o          1 NWD      -0.811800
     17 O92         -3.8840     1.7970    -0.6350 o          1 NWD      -0.811800
     18 HN3          1.6880    -2.9230    -0.2740 hn         1 NWD       0.340500
     19 H6           0.3760     1.6300    -0.3450 h4         1 NWD       0.204000
     20 H7          -1.5600     0.9610    -1.4610 h1         1 NWD       0.086200
     21 H7A         -2.0790    -0.7150    -1.3490 h1         1 NWD       0.086200
     22 H8          -1.8650     1.3120     0.9260 h1         1 NWD       0.047700
     23 HN8         -2.7270    -1.4660     1.1660 hn         1 NWD       0.329800
     24 HN8A        -1.3480    -0.8400     1.7800 hn         1 NWD       0.329800
@<TRIPOS>BOND
     1     1     3 1   
     2     1    11 1   
     3     1    12 1   
     4     2     4 1   
     5     3     5 2   
     6     3     6 1   
     7     4     7 1   
     8     4    10 1   
     9     6     8 1   
    10     6    18 1   
    11     8     9 2   
    12     8    10 1   
    13    10    11 2   
    14    11    19 1   
    15    12    13 1   
    16    12    20 1   
    17    12    21 1   
    18    13    14 1   
    19    13    15 1   
    20    13    22 1   
    21    14    23 1   
    22    14    24 1   
    23    15    16 1   
    24    15    17 1   
@<TRIPOS>SUBSTRUCTURE
     1 NWD         1 TEMP              0 ****  ****    0 ROOT
