@<TRIPOS>MOLECULE
NWE
   50    53     1     0     0
SMALL
abcg2


@<TRIPOS>ATOM
      1 C1          30.2010     7.9060    -3.6770 ca         1 NWE      -0.103000
      2 C2          28.8400     7.8050    -3.4120 ca         1 NWE      -0.138300
      3 C3          28.2740     6.5510    -3.1750 ca         1 NWE      -0.086300
      4 C11         34.5550     8.1290    -3.7050 ca         1 NWE      -0.132000
      5 C12         33.1990     8.0020    -3.4540 ca         1 NWE      -0.106000
      6 C13         35.2120     5.0990    -5.8770 c3         1 NWE       0.214900
      7 C15         35.3080     2.7260    -6.0730 ca         1 NWE       0.145100
      8 C16         34.7990     1.5020    -5.6130 ca         1 NWE      -0.016300
      9 C17         35.1480     0.3520    -6.3070 ca         1 NWE      -0.098000
     10 C18         35.9670     0.3900    -7.4320 ca         1 NWE      -0.152000
     11 C19         36.4530     1.6080    -7.8720 ca         1 NWE      -0.111000
     12 C20         36.1280     2.7790    -7.1940 ca         1 NWE      -0.206000
     13 C21         33.8920     1.4590    -4.4250 c3         1 NWE      -0.178100
     14 C22         32.4830     2.0680    -4.6610 c          1 NWE       0.729000
     15 C25         27.9750     9.0470    -3.4170 c6         1 NWE       0.201100
     16 C27         26.0270     7.6740    -3.2280 c6         1 NWE       0.151800
     17 C28         26.8070     6.4160    -2.8600 c6         1 NWE      -0.066100
     18 C4          29.1010     5.4300    -3.2130 ca         1 NWE      -0.101000
     19 C5          30.4550     5.5360    -3.4770 ca         1 NWE      -0.064000
     20 C6          31.0300     6.7880    -3.7090 cp         1 NWE      -0.041000
     21 C7          32.4770     6.9250    -3.9760 cp         1 NWE      -0.035000
     22 C8          33.1520     5.9870    -4.7530 ca         1 NWE      -0.048000
     23 C9          34.5160     6.1060    -5.0080 ca         1 NWE      -0.086300
     24 C10         35.2160     7.1820    -4.4760 ca         1 NWE      -0.108000
     25 O14         34.9560     3.8120    -5.3500 os         1 NWE      -0.319100
     26 O23         32.1190     2.2500    -5.8360 o          1 NWE      -0.735000
     27 O24         31.8280     2.2950    -3.6230 o          1 NWE      -0.735000
     28 N26         26.6810     8.8930    -2.7850 n7         1 NWE      -0.852400
     29 H1          30.6190     8.8870    -3.8770 ha         1 NWE       0.099000
     30 H2          35.1040     8.9630    -3.2870 ha         1 NWE       0.097000
     31 H3          32.7020     8.7340    -2.8290 ha         1 NWE       0.102000
     32 H4          36.2870     5.3080    -5.9100 h1         1 NWE       0.029200
     33 H5          34.8360     5.1680    -6.9060 h1         1 NWE       0.029200
     34 H6          34.7610    -0.5990    -5.9600 ha         1 NWE       0.104000
     35 H7          36.2180    -0.5250    -7.9530 ha         1 NWE       0.091000
     36 H8          37.0920     1.6610    -8.7440 ha         1 NWE       0.087000
     37 H9          36.5280     3.7190    -7.5510 ha         1 NWE       0.095000
     38 H10         33.7540     0.4160    -4.1230 hc         1 NWE       0.035700
     39 H11         34.3470     1.9580    -3.5660 hc         1 NWE       0.035700
     40 H12         28.5080     9.8700    -2.9360 h1         1 NWE       0.049700
     41 H13         27.8170     9.3580    -4.4560 h1         1 NWE       0.049700
     42 H14         25.9070     7.7330    -4.3140 h1         1 NWE       0.047700
     43 H15         25.0220     7.6280    -2.8040 h1         1 NWE       0.047700
     44 H16         26.3920     5.5450    -3.3740 hc         1 NWE       0.048200
     45 H17         26.6890     6.2190    -1.7890 hc         1 NWE       0.048200
     46 H18         28.6740     4.4510    -3.0270 ha         1 NWE       0.124000
     47 H19         31.0650     4.6400    -3.4780 ha         1 NWE       0.184000
     48 H20         32.6020     5.1610    -5.1900 ha         1 NWE       0.167000
     49 H21         36.2790     7.2810    -4.6620 ha         1 NWE       0.100000
     50 H23         26.8020     8.8570    -1.7790 hn         1 NWE       0.402000
@<TRIPOS>BOND
     1     1     2 ar  
     2     1    20 ar  
     3     1    29 1   
     4     2     3 ar  
     5     2    15 1   
     6     3    17 1   
     7     3    18 ar  
     8     4     5 ar  
     9     4    24 ar  
    10     4    30 1   
    11     5    21 ar  
    12     5    31 1   
    13     6    23 1   
    14     6    25 1   
    15     6    32 1   
    16     6    33 1   
    17     7     8 ar  
    18     7    12 ar  
    19     7    25 1   
    20     8     9 ar  
    21     8    13 1   
    22     9    10 ar  
    23     9    34 1   
    24    10    11 ar  
    25    10    35 1   
    26    11    12 ar  
    27    11    36 1   
    28    12    37 1   
    29    13    14 1   
    30    13    38 1   
    31    13    39 1   
    32    14    26 1   
    33    14    27 1   
    34    15    28 1   
    35    15    40 1   
    36    15    41 1   
    37    16    17 1   
    38    16    28 1   
    39    16    42 1   
    40    16    43 1   
    41    17    44 1   
    42    17    45 1   
    43    18    19 ar  
    44    18    46 1   
    45    19    20 ar  
    46    19    47 1   
    47    20    21 1   
    48    21    22 ar  
    49    22    23 ar  
    50    22    48 1   
    51    23    24 ar  
    52    24    49 1   
    53    28    50 1   
@<TRIPOS>SUBSTRUCTURE
     1 NWE         1 TEMP              0 ****  ****    0 ROOT
