@<TRIPOS>MOLECULE
NWE
   50    53     1     0     0
SMALL
No Charge or Current Charge


@<TRIPOS>ATOM
      1 C1          30.1600     8.0430    -3.5680 ca         1 NWE      -0.103000
      2 C2          28.7760     7.9460    -3.3250 ca         1 NWE      -0.138300
      3 C3          28.1720     6.6720    -3.2330 ca         1 NWE      -0.086300
      4 C11         34.5870     8.1510    -3.6270 ca         1 NWE      -0.132000
      5 C12         33.2070     8.0460    -3.3890 ca         1 NWE      -0.106000
      6 C13         35.1930     5.1580    -5.9480 c3         1 NWE       0.214900
      7 C15         35.3260     2.6920    -6.1050 ca         1 NWE       0.145100
      8 C16         34.9000     1.4320    -5.6130 ca         1 NWE      -0.016300
      9 C17         35.3390     0.2570    -6.2590 ca         1 NWE      -0.098000
     10 C18         36.1890     0.3280    -7.3740 ca         1 NWE      -0.152000
     11 C19         36.6110     1.5740    -7.8590 ca         1 NWE      -0.111000
     12 C20         36.1820     2.7530    -7.2290 ca         1 NWE      -0.206000
     13 C21         33.9670     1.3080    -4.4020 c3         1 NWE      -0.178100
     14 C22         32.5040     1.3070    -4.8720 c          1 NWE       0.729000
     15 C25         27.9400     9.2270    -3.1970 c6         1 NWE       0.201100
     16 C27         25.9020     7.8730    -3.1140 c6         1 NWE       0.151800
     17 C28         26.6710     6.5410    -2.9490 c6         1 NWE      -0.066100
     18 C4          28.9600     5.5170    -3.3730 ca         1 NWE      -0.101000
     19 C5          30.3400     5.6230    -3.6130 ca         1 NWE      -0.064000
     20 C6          30.9700     6.8890    -3.7160 cp         1 NWE      -0.041000
     21 C7          32.4420     7.0050    -3.9720 cp         1 NWE      -0.035000
     22 C8          33.1160     6.0750    -4.8050 ca         1 NWE      -0.048000
     23 C9          34.5010     6.1740    -5.0460 ca         1 NWE      -0.086300
     24 C10         35.2340     7.2190    -4.4520 ca         1 NWE      -0.108000
     25 O14         34.8910     3.8390    -5.4660 os         1 NWE      -0.319100
     26 O23         32.0130     0.2410    -5.2160 o          1 NWE      -0.735000
     27 O24         31.9270     2.3790    -4.9820 o          1 NWE      -0.735000
     28 N26         26.6560     8.9880    -2.5010 n7         1 NWE      -0.852400
     29 H1          30.6100     9.0280    -3.6580 ha         1 NWE       0.099000
     30 H2          35.1570     8.9560    -3.1670 ha         1 NWE       0.097000
     31 H3          32.7290     8.7710    -2.7350 ha         1 NWE       0.102000
     32 H4          36.2770     5.3310    -5.9400 h1         1 NWE       0.029200
     33 H5          34.8290     5.2870    -6.9750 h1         1 NWE       0.029200
     34 H6          35.0170    -0.7160    -5.8960 ha         1 NWE       0.104000
     35 H7          36.5200    -0.5860    -7.8630 ha         1 NWE       0.091000
     36 H8          37.2700     1.6260    -8.7230 ha         1 NWE       0.087000
     37 H9          36.5270     3.7030    -7.6270 ha         1 NWE       0.095000
     38 H10         34.2000     0.3510    -3.9190 hc         1 NWE       0.035700
     39 H11         34.1510     2.1620    -3.7410 hc         1 NWE       0.035700
     40 H12         28.5150     9.9900    -2.6500 h1         1 NWE       0.049700
     41 H13         27.7440     9.6230    -4.2050 h1         1 NWE       0.049700
     42 H14         25.7460     8.0800    -4.1840 h1         1 NWE       0.047700
     43 H15         24.9110     7.7850    -2.6460 h1         1 NWE       0.047700
     44 H16         26.2260     5.7810    -3.6060 hc         1 NWE       0.048200
     45 H17         26.5380     6.1750    -1.9230 hc         1 NWE       0.048200
     46 H18         28.5040     4.5330    -3.2910 ha         1 NWE       0.124000
     47 H19         30.9280     4.7120    -3.7050 ha         1 NWE       0.184000
     48 H20         32.5560     5.2720    -5.2780 ha         1 NWE       0.167000
     49 H21         36.3030     7.3080    -4.6300 ha         1 NWE       0.100000
     50 H23         26.8690     8.7240    -1.5320 hn         1 NWE       0.402000
@<TRIPOS>BOND
     1     1     2 ar  
     2     1    20 ar  
     3     1    29 1   
     4     2     3 ar  
     5     2    15 1   
     6     3    17 1   
     7     3    18 ar  
     8     4     5 ar  
     9     4    24 ar  
    10     4    30 1   
    11     5    21 ar  
    12     5    31 1   
    13     6    23 1   
    14     6    25 1   
    15     6    32 1   
    16     6    33 1   
    17     7     8 ar  
    18     7    12 ar  
    19     7    25 1   
    20     8     9 ar  
    21     8    13 1   
    22     9    10 ar  
    23     9    34 1   
    24    10    11 ar  
    25    10    35 1   
    26    11    12 ar  
    27    11    36 1   
    28    12    37 1   
    29    13    14 1   
    30    13    38 1   
    31    13    39 1   
    32    14    26 1   
    33    14    27 1   
    34    15    28 1   
    35    15    40 1   
    36    15    41 1   
    37    16    17 1   
    38    16    28 1   
    39    16    42 1   
    40    16    43 1   
    41    17    44 1   
    42    17    45 1   
    43    18    19 ar  
    44    18    46 1   
    45    19    20 ar  
    46    19    47 1   
    47    20    21 1   
    48    21    22 ar  
    49    22    23 ar  
    50    22    48 1   
    51    23    24 ar  
    52    24    49 1   
    53    28    50 1   
@<TRIPOS>SUBSTRUCTURE
     1 NWE         1 TEMP              0 ****  ****    0 ROOT
