@<TRIPOS>MOLECULE
NWG
   22    21     1     0     0
SMALL
bcc


@<TRIPOS>ATOM
      1 C01        -21.4740    64.2620   -25.5050 c          1 NWG       0.428100
      2 C02        -20.2310    64.7220   -26.3180 c          1 NWG       0.858600
      3 C05        -22.8320    64.6910   -25.9990 c3         1 NWG      -0.181400
      4 C06        -23.2020    64.0660   -27.3460 c3         1 NWG      -0.047400
      5 C07        -23.3260    62.5490   -27.2870 c3         1 NWG       0.127800
      6 C09        -24.0400    60.7880   -28.6440 c2         1 NWG       0.766100
      7 N08        -23.7890    62.0410   -28.5540 n2         1 NWG      -0.714900
      8 N10        -23.8950    59.8690   -27.6380 nv         1 NWG      -0.940300
      9 N11        -24.6110    60.2880   -29.7950 nv         1 NWG      -0.940300
     10 O03        -19.2130    64.0270   -26.1920 o          1 NWG      -0.807800
     11 O04        -20.3930    65.7590   -26.9860 o          1 NWG      -0.807800
     12 O12        -21.3370    63.6000   -24.4990 o          1 NWG      -0.575100
     13 H1         -22.8370    65.7780   -26.1010 hc         1 NWG       0.042200
     14 H2         -23.5830    64.4240   -25.2510 hc         1 NWG       0.042200
     15 H3         -22.4690    64.3470   -28.1050 hc         1 NWG       0.049200
     16 H4         -24.1580    64.4830   -27.6700 hc         1 NWG       0.049200
     17 H5         -24.0060    62.2880   -26.4600 h1         1 NWG       0.031700
     18 H6         -23.2280    60.0800   -26.9140 hn         1 NWG       0.397300
     19 H7         -23.9220    58.8920   -27.8780 hn         1 NWG       0.397300
     20 H8         -24.3360    59.3560   -30.0660 hn         1 NWG       0.397300
     21 H10        -22.3490    62.1220   -27.0080 h1         1 NWG       0.031700
     22 H11        -24.5680    60.9330   -30.5680 hn         1 NWG       0.397300
@<TRIPOS>BOND
     1     1     2 1   
     2     1     3 1   
     3     1    12 2   
     4     2    10 1   
     5     2    11 1   
     6     3     4 1   
     7     3    13 1   
     8     3    14 1   
     9     4     5 1   
    10     4    15 1   
    11     4    16 1   
    12     5     7 1   
    13     5    17 1   
    14     5    21 1   
    15     6     7 2   
    16     6     8 1   
    17     6     9 1   
    18     8    18 1   
    19     8    19 1   
    20     9    20 1   
    21     9    22 1   
@<TRIPOS>SUBSTRUCTURE
     1 NWG         1 TEMP              0 ****  ****    0 ROOT
