@<TRIPOS>MOLECULE
NWG
   22    21     1     0     0
SMALL
No Charge or Current Charge


@<TRIPOS>ATOM
      1 C01        -21.2120    64.3450   -25.6220 c          1 NWG       0.428100
      2 C02        -20.2150    65.5240   -26.1250 c          1 NWG       0.648000
      3 C05        -22.7110    64.4790   -25.9760 c3         1 NWG      -0.181400
      4 C06        -23.0700    63.7680   -27.3060 c3         1 NWG      -0.047400
      5 C07        -22.8820    62.2340   -27.2760 c3         1 NWG       0.127800
      6 C09        -24.1700    60.7490   -28.6850 c2         1 NWG       0.766100
      7 N08        -23.2980    61.6460   -28.5630 n2         1 NWG      -0.714900
      8 N10        -24.8600    60.1280   -27.7600 nv         1 NWG      -1.050700
      9 N11        -24.5480    60.2420   -29.8280 nv         1 NWG      -1.050700
     10 O03        -19.1490    65.6840   -25.5340 o          1 NWG      -0.702500
     11 O04        -20.5530    66.2160   -27.0830 o          1 NWG      -0.702500
     12 O12        -20.8130    63.3710   -24.9750 o          1 NWG      -0.575100
     13 H1         -22.9510    65.5390   -26.1140 hc         1 NWG       0.042200
     14 H2         -23.3220    64.0550   -25.1710 hc         1 NWG       0.042200
     15 H3         -22.4660    64.1920   -28.1180 hc         1 NWG       0.049200
     16 H4         -24.1180    63.9900   -27.5440 hc         1 NWG       0.049200
     17 H5         -23.4530    61.8290   -26.4300 h1         1 NWG       0.031700
     18 H6         -24.3120    59.8990   -26.9440 hn         1 NWG       0.452500
     19 H7         -25.4240    59.3840   -28.1390 hn         1 NWG       0.452500
     20 H8         -24.2580    59.2780   -29.9150 hn         1 NWG       0.452500
     21 H10        -21.8240    62.0070   -27.0920 h1         1 NWG       0.031700
     22 H11        -24.1880    60.8070   -30.5850 hn         1 NWG       0.452500
@<TRIPOS>BOND
     1     1     2 1   
     2     1     3 1   
     3     1    12 2   
     4     2    10 1   
     5     2    11 1   
     6     3     4 1   
     7     3    13 1   
     8     3    14 1   
     9     4     5 1   
    10     4    15 1   
    11     4    16 1   
    12     5     7 1   
    13     5    17 1   
    14     5    21 1   
    15     6     7 2   
    16     6     8 1   
    17     6     9 1   
    18     8    18 1   
    19     8    19 1   
    20     9    20 1   
    21     9    22 1   
@<TRIPOS>SUBSTRUCTURE
     1 NWG         1 TEMP              0 ****  ****    0 ROOT
