@<TRIPOS>MOLECULE
NWH
   27    26     1     0     0
SMALL
No Charge or Current Charge


@<TRIPOS>ATOM
      1 C7           4.9710    -0.2890     0.0790 c3         1 NWH      -0.089100
      2 C6           3.5120    -0.7280    -0.1520 c3         1 NWH      -0.075400
      3 C5           2.4940     0.4100     0.0800 c3         1 NWH      -0.076400
      4 C4           1.0320    -0.0310    -0.1510 c3         1 NWH      -0.074400
      5 C3           0.0140     1.1120     0.0810 c3         1 NWH      -0.088400
      6 C2          -1.4560     0.7130    -0.1940 c3         1 NWH       0.106700
      7 C1          -2.4170     1.9120    -0.0570 c3         1 NWH      -0.108100
      8 N           -1.8800    -0.3800     0.6850 ns         1 NWH      -0.514900
      9 C           -2.8060    -1.3460     0.3550 c          1 NWH       0.597900
     10 O           -3.3700    -1.3880    -0.7310 o          1 NWH      -0.608100
     11 H1           5.1130     0.0590     1.1090 hc         1 NWH       0.031700
     12 H2           5.6550    -1.1280    -0.0970 hc         1 NWH       0.031700
     13 H3           5.2440     0.5250    -0.6030 hc         1 NWH       0.031700
     14 H4           3.4110    -1.1040    -1.1780 hc         1 NWH       0.037700
     15 H5           3.2810    -1.5650     0.5190 hc         1 NWH       0.037700
     16 H6           2.5990     0.7830     1.1060 hc         1 NWH       0.036200
     17 H7           2.7290     1.2450    -0.5910 hc         1 NWH       0.036200
     18 H8           0.9260    -0.4030    -1.1780 hc         1 NWH       0.042700
     19 H9           0.8030    -0.8690     0.5180 hc         1 NWH       0.042700
     20 H10          0.1040     1.4730     1.1130 hc         1 NWH       0.043200
     21 H11          0.2770     1.9540    -0.5710 hc         1 NWH       0.043200
     22 H12         -1.5120     0.3600    -1.2340 h1         1 NWH       0.077700
     23 H13         -2.4050     2.3060     0.9670 hc         1 NWH       0.041700
     24 H14         -2.1280     2.7190    -0.7410 hc         1 NWH       0.041700
     25 H15         -3.4440     1.6150    -0.2990 hc         1 NWH       0.041700
     26 H16         -1.4740    -0.4390     1.6110 hn         1 NWH       0.308500
     27 H17         -2.9770    -2.0700     1.1740 h5         1 NWH       0.003200
@<TRIPOS>BOND
     1     1     2 1   
     2     1    11 1   
     3     1    12 1   
     4     1    13 1   
     5     2     3 1   
     6     2    14 1   
     7     2    15 1   
     8     3     4 1   
     9     3    16 1   
    10     3    17 1   
    11     4     5 1   
    12     4    18 1   
    13     4    19 1   
    14     5     6 1   
    15     5    20 1   
    16     5    21 1   
    17     6     7 1   
    18     6     8 1   
    19     6    22 1   
    20     7    23 1   
    21     7    24 1   
    22     7    25 1   
    23     8     9 1   
    24     8    26 1   
    25     9    10 2   
    26     9    27 1   
@<TRIPOS>SUBSTRUCTURE
     1 NWH         1 TEMP              0 ****  ****    0 ROOT
