@<TRIPOS>MOLECULE
NWH
   27    26     1     0     0
SMALL
bcc


@<TRIPOS>ATOM
      1 C7           4.8940    -0.3090     0.1130 c3         1 NWH      -0.089100
      2 C6           3.4590    -0.7160    -0.1940 c3         1 NWH      -0.075400
      3 C5           2.4550     0.3950     0.0870 c3         1 NWH      -0.076400
      4 C4           1.0160    -0.0140    -0.2010 c3         1 NWH      -0.074400
      5 C3           0.0160     1.1040     0.0680 c3         1 NWH      -0.088400
      6 C2          -1.4350     0.7130    -0.2000 c3         1 NWH       0.106700
      7 C1          -2.3800     1.9030    -0.0810 c3         1 NWH      -0.108100
      8 N           -1.8280    -0.3550     0.7060 ns         1 NWH      -0.581900
      9 C           -2.6780    -1.3390     0.4030 c          1 NWH       0.664900
     10 O           -3.2190    -1.5070    -0.6790 o          1 NWH      -0.608100
     11 H1           5.0120    -0.0370     1.1640 hc         1 NWH       0.031700
     12 H2           5.5940    -1.1170    -0.0990 hc         1 NWH       0.031700
     13 H3           5.1960     0.5530    -0.4850 hc         1 NWH       0.031700
     14 H4           3.3810    -1.0180    -1.2420 hc         1 NWH       0.037700
     15 H5           3.1930    -1.5990     0.3960 hc         1 NWH       0.037700
     16 H6           2.5420     0.7050     1.1340 hc         1 NWH       0.036200
     17 H7           2.7150     1.2760    -0.5110 hc         1 NWH       0.036200
     18 H8           0.9280    -0.3290    -1.2470 hc         1 NWH       0.042700
     19 H9           0.7630    -0.8910     0.4030 hc         1 NWH       0.042700
     20 H10          0.1120     1.4500     1.1040 hc         1 NWH       0.043200
     21 H11          0.2570     1.9650    -0.5620 hc         1 NWH       0.043200
     22 H12         -1.5030     0.3130    -1.2140 h1         1 NWH       0.077700
     23 H13         -2.3480     2.3290     0.9240 hc         1 NWH       0.041700
     24 H14         -2.1010     2.6870    -0.7870 hc         1 NWH       0.041700
     25 H15         -3.4080     1.6080    -0.2930 hc         1 NWH       0.041700
     26 H16         -1.4930    -0.3120     1.6570 hn         1 NWH       0.308500
     27 H17         -2.8440    -2.0150     1.2560 h5         1 NWH       0.003200
@<TRIPOS>BOND
     1     1     2 1   
     2     1    11 1   
     3     1    12 1   
     4     1    13 1   
     5     2     3 1   
     6     2    14 1   
     7     2    15 1   
     8     3     4 1   
     9     3    16 1   
    10     3    17 1   
    11     4     5 1   
    12     4    18 1   
    13     4    19 1   
    14     5     6 1   
    15     5    20 1   
    16     5    21 1   
    17     6     7 1   
    18     6     8 1   
    19     6    22 1   
    20     7    23 1   
    21     7    24 1   
    22     7    25 1   
    23     8     9 1   
    24     8    26 1   
    25     9    10 2   
    26     9    27 1   
@<TRIPOS>SUBSTRUCTURE
     1 NWH         1 TEMP              0 ****  ****    0 ROOT
