@<TRIPOS>MOLECULE
NWJ
   41    44     1     0     0
SMALL
No Charge or Current Charge


@<TRIPOS>ATOM
      1 CAV         -5.8630    -0.4640     1.0110 c          1 NWJ       0.584500
      2 OAE         -7.0360    -0.1120     0.9330 o          1 NWJ      -0.511100
      3 CAX         -4.7880     0.0240     0.0770 ca         1 NWJ      -0.199600
      4 CAK         -3.4630    -0.4320     0.2360 ca         1 NWJ      -0.063000
      5 CAI         -5.0880     0.9330    -0.9590 ca         1 NWJ      -0.040000
      6 CAH         -4.0730     1.3720    -1.8240 ca         1 NWJ      -0.121000
      7 CAJ         -2.7550     0.9150    -1.6590 ca         1 NWJ      -0.053000
      8 CAY         -2.4360     0.0180    -0.6190 ca         1 NWJ      -0.060800
      9 CBA         -1.0730    -0.4860    -0.4360 cc         1 NWJ       0.013700
     10 NAS         -0.6900    -1.8030    -0.1400 na         1 NWJ      -0.310400
     11 CAZ          0.0860     0.2860    -0.4020 cd         1 NWJ       0.004100
     12 CAG          0.1300     1.7000    -0.5890 ch         1 NWJ       0.322700
     13 NAA          0.1300     2.8570    -0.7510 n1         1 NWJ      -0.482000
     14 C5           1.1930    -0.6170    -0.1180 ca         1 NWJ      -0.257800
     15 C4           0.6770    -1.8830     0.0190 ca         1 NWJ       0.193500
     16 N3           1.4680    -2.9410     0.2590 nb         1 NWJ      -0.311000
     17 C2           2.7790    -2.6650     0.3480 ca         1 NWJ       0.437900
     18 NAB          3.5910    -3.7140     0.5860 nv         1 NWJ      -1.052900
     19 N1           3.3840    -1.4750     0.2410 nb         1 NWJ      -0.366000
     20 C6           2.5780    -0.4220     0.0110 ca         1 NWJ       0.483900
     21 NBF          3.1950     0.8340    -0.0750 nh         1 NWJ      -0.775300
     22 CAN          4.3520     1.0850    -0.9720 c5         1 NWJ       0.226800
     23 CAL          4.7350     2.5320    -0.5760 c5         1 NWJ      -0.096900
     24 CAM          4.5350     2.4770     0.9590 c5         1 NWJ      -0.096900
     25 CAO          3.1470     1.7960     1.0570 c5         1 NWJ       0.226800
     26 HAV         -5.5360    -1.1790     1.7980 h4         1 NWJ      -0.010800
     27 HAK         -3.2250    -1.1310     1.0360 ha         1 NWJ       0.116000
     28 HAI         -6.1050     1.2960    -1.1000 ha         1 NWJ       0.136000
     29 HAH         -4.3090     2.0650    -2.6290 ha         1 NWJ       0.126000
     30 HAJ         -1.9870     1.2490    -2.3540 ha         1 NWJ       0.129000
     31 HAS         -1.3200    -2.5930    -0.0680 hn         1 NWJ       0.365000
     32 HAB1         3.1680    -4.5790     0.9120 hn         1 NWJ       0.488500
     33 HAB2         4.5410    -3.5240     0.8940 hn         1 NWJ       0.488500
     34 HAN1         5.1780     0.3890    -0.7680 h1         1 NWJ       0.059450
     35 HAN2         4.0850     1.0100    -2.0350 h1         1 NWJ       0.059450
     36 HAO1         2.3390     2.5280     0.9300 h1         1 NWJ       0.059450
     37 HAO2         3.0100     1.2990     2.0280 h1         1 NWJ       0.059450
     38 HAL1         5.7600     2.7870    -0.8660 hc         1 NWJ       0.057200
     39 HAL2         4.0660     3.2650    -1.0440 hc         1 NWJ       0.057200
     40 HAM1         5.3110     1.8700     1.4420 hc         1 NWJ       0.057200
     41 HAM2         4.5490     3.4670     1.4280 hc         1 NWJ       0.057200
@<TRIPOS>BOND
     1     1     2 2   
     2     1     3 1   
     3     1    26 1   
     4     3     4 ar  
     5     3     5 ar  
     6     4     8 ar  
     7     4    27 1   
     8     5     6 ar  
     9     5    28 1   
    10     6     7 ar  
    11     6    29 1   
    12     7     8 ar  
    13     7    30 1   
    14     8     9 1   
    15     9    10 1   
    16     9    11 2   
    17    10    15 1   
    18    10    31 1   
    19    11    12 1   
    20    11    14 1   
    21    12    13 3   
    22    14    15 ar  
    23    14    20 ar  
    24    15    16 ar  
    25    16    17 ar  
    26    17    18 1   
    27    17    19 ar  
    28    18    32 1   
    29    18    33 1   
    30    19    20 ar  
    31    20    21 1   
    32    21    22 1   
    33    21    25 1   
    34    22    23 1   
    35    22    34 1   
    36    22    35 1   
    37    23    24 1   
    38    23    38 1   
    39    23    39 1   
    40    24    25 1   
    41    24    40 1   
    42    24    41 1   
    43    25    36 1   
    44    25    37 1   
@<TRIPOS>SUBSTRUCTURE
     1 NWJ         1 TEMP              0 ****  ****    0 ROOT
