@<TRIPOS>MOLECULE
NWJ
   41    44     1     0     0
SMALL
abcg2


@<TRIPOS>ATOM
      1 CAV         -5.7670    -0.9950     0.9650 c          1 NWJ       0.584500
      2 OAE         -6.9570    -0.7930     0.9530 o          1 NWJ      -0.511100
      3 CAX         -4.7840    -0.2240     0.1840 ca         1 NWJ      -0.199600
      4 CAK         -3.4420    -0.5640     0.2930 ca         1 NWJ      -0.063000
      5 CAI         -5.1770     0.8270    -0.6430 ca         1 NWJ      -0.040000
      6 CAH         -4.2200     1.5210    -1.3620 ca         1 NWJ      -0.121000
      7 CAJ         -2.8790     1.1750    -1.2620 ca         1 NWJ      -0.053000
      8 CAY         -2.4710     0.1360    -0.4240 ca         1 NWJ      -0.060800
      9 CBA         -1.0660    -0.2390    -0.3070 cc         1 NWJ       0.013700
     10 NAS         -0.6900    -1.5400    -0.1990 na         1 NWJ      -0.310400
     11 CAZ          0.0730     0.5420    -0.2470 cd         1 NWJ       0.004100
     12 CAG         -0.0270     1.9480    -0.2570 ch         1 NWJ       0.322700
     13 NAA         -0.1770     3.0930    -0.2690 n1         1 NWJ      -0.482000
     14 C5           1.2070    -0.3480    -0.1070 ca         1 NWJ      -0.257800
     15 C4           0.6600    -1.6410    -0.0980 ca         1 NWJ       0.193500
     16 N3           1.2980    -2.8000    -0.0350 nb         1 NWJ      -0.311000
     17 C2           2.6180    -2.6530     0.0100 ca         1 NWJ       0.437900
     18 NAB          3.3690    -3.7790     0.0180 nv         1 NWJ      -1.052900
     19 N1           3.2840    -1.4980     0.0170 nb         1 NWJ      -0.366000
     20 C6           2.6340    -0.3330    -0.0310 ca         1 NWJ       0.483900
     21 NBF          3.4100     0.7560    -0.0150 nh         1 NWJ      -0.775300
     22 CAN          4.8680     0.6550    -0.0530 c5         1 NWJ       0.226800
     23 CAL          5.3090     2.0950    -0.2760 c5         1 NWJ      -0.096900
     24 CAM          4.2380     2.8960     0.4520 c5         1 NWJ      -0.096900
     25 CAO          2.9600     2.1310     0.1280 c5         1 NWJ       0.226800
     26 HAV         -5.3320    -1.7990     1.5840 h4         1 NWJ      -0.010800
     27 HAK         -3.1550    -1.3730     0.9560 ha         1 NWJ       0.116000
     28 HAI         -6.2220     1.0940    -0.7250 ha         1 NWJ       0.136000
     29 HAH         -4.5130     2.3300    -2.0170 ha         1 NWJ       0.126000
     30 HAJ         -2.1540     1.7060    -1.8630 ha         1 NWJ       0.129000
     31 HAS         -1.3090    -2.3320    -0.2820 hn         1 NWJ       0.365000
     32 HAB1         2.9160    -4.6470     0.2480 hn         1 NWJ       0.488500
     33 HAB2         4.3340    -3.6980     0.2860 hn         1 NWJ       0.488500
     34 HAN1         5.2530     0.2610     0.8920 h1         1 NWJ       0.059450
     35 HAN2         5.1920    -0.0180    -0.8460 h1         1 NWJ       0.059450
     36 HAO1         2.5140     2.4950    -0.8010 h1         1 NWJ       0.059450
     37 HAO2         2.2250     2.2240     0.9270 h1         1 NWJ       0.059450
     38 HAL1         6.3150     2.2770     0.1000 hc         1 NWJ       0.057200
     39 HAL2         5.3020     2.3300    -1.3430 hc         1 NWJ       0.057200
     40 HAM1         4.4220     2.8780     1.5280 hc         1 NWJ       0.057200
     41 HAM2         4.1800     3.9380     0.1400 hc         1 NWJ       0.057200
@<TRIPOS>BOND
     1     1     2 2   
     2     1     3 1   
     3     1    26 1   
     4     3     4 ar  
     5     3     5 ar  
     6     4     8 ar  
     7     4    27 1   
     8     5     6 ar  
     9     5    28 1   
    10     6     7 ar  
    11     6    29 1   
    12     7     8 ar  
    13     7    30 1   
    14     8     9 1   
    15     9    10 1   
    16     9    11 2   
    17    10    15 1   
    18    10    31 1   
    19    11    12 1   
    20    11    14 1   
    21    12    13 3   
    22    14    15 ar  
    23    14    20 ar  
    24    15    16 ar  
    25    16    17 ar  
    26    17    18 1   
    27    17    19 ar  
    28    18    32 1   
    29    18    33 1   
    30    19    20 ar  
    31    20    21 1   
    32    21    22 1   
    33    21    25 1   
    34    22    23 1   
    35    22    34 1   
    36    22    35 1   
    37    23    24 1   
    38    23    38 1   
    39    23    39 1   
    40    24    25 1   
    41    24    40 1   
    42    24    41 1   
    43    25    36 1   
    44    25    37 1   
@<TRIPOS>SUBSTRUCTURE
     1 NWJ         1 TEMP              0 ****  ****    0 ROOT
