@<TRIPOS>MOLECULE
NWK
   51    54     1     0     0
SMALL
abcg2


@<TRIPOS>ATOM
      1 O1           1.8220    -2.9000     0.4280 o          1 NWK      -0.711500
      2 C1           4.4850    -0.4940    -0.0320 ca         1 NWK      -0.060000
      3 C5           3.5270     1.6940    -0.5540 ca         1 NWK       0.073400
      4 C6           5.1140     3.1630    -0.8710 cc         1 NWK       0.400800
      5 C4           2.2360     1.1600    -0.4540 ca         1 NWK       0.111100
      6 O4          -0.8510     6.3990    -2.5910 os         1 NWK      -0.459000
      7 C3           2.0970    -0.1850    -0.1560 ca         1 NWK      -0.111000
      8 O3           1.1670     1.9820    -0.6070 os         1 NWK      -0.355100
      9 C2           3.2030    -1.0190     0.0530 ca         1 NWK      -0.111600
     10 O2           4.0320    -3.1650     0.5780 o          1 NWK      -0.711500
     11 C13          3.0000    -2.4970     0.3830 c          1 NWK       0.713600
     12 C14          0.2890     1.7020    -1.6990 c3         1 NWK       0.126600
     13 C15          0.6630     2.4630    -2.9700 c3         1 NWK       0.155800
     14 N3           0.2730     3.8520    -3.0760 n3         1 NWK      -0.738600
     15 C17         -1.1570     4.0640    -3.1660 c6         1 NWK       0.137800
     16 C18          0.8600     4.7540    -2.1050 c6         1 NWK       0.137800
     17 C19          0.5410     6.1850    -2.4950 c6         1 NWK       0.152100
     18 C16         -1.4310     5.5140    -3.5230 c6         1 NWK       0.152100
     19 N            3.8390     2.9950    -0.8530 nd         1 NWK      -0.580100
     20 S            6.0970     1.7630    -0.5200 ss         1 NWK       0.067800
     21 C            4.6250     0.8520    -0.3330 ca         1 NWK      -0.201000
     22 C7           6.9920     4.6530    -1.2010 c          1 NWK       0.642700
     23 O            7.8210     3.7900    -0.9580 o          1 NWK      -0.595100
     24 C8           7.3930     6.0100    -1.5430 cc         1 NWK      -0.222600
     25 N2           8.7260     6.3100    -1.5460 na         1 NWK      -0.052000
     26 C11          8.9490     7.5930    -1.8830 cc         1 NWK      -0.125300
     27 C12         10.3000     8.2010    -1.9390 c3         1 NWK      -0.029800
     28 C10          7.7090     8.1590    -2.1140 cd         1 NWK       0.029000
     29 CL2          7.4080     9.7750    -2.5700 cl         1 NWK      -0.157000
     30 C9           6.7350     7.1740    -1.9030 cd         1 NWK       0.095000
     31 CL1          5.0580     7.4290    -2.0860 cl         1 NWK      -0.138000
     32 H1           5.3470    -1.1260     0.1330 ha         1 NWK       0.145000
     33 H2           1.1050    -0.6090    -0.0670 ha         1 NWK       0.142000
     34 H4          -0.7160     1.9610    -1.3630 h1         1 NWK       0.050200
     35 H5           0.2880     0.6290    -1.9150 h1         1 NWK       0.050200
     36 H6           0.2050     1.9320    -3.8110 h1         1 NWK       0.057700
     37 H7           1.7460     2.3890    -3.1190 h1         1 NWK       0.057700
     38 H9          -1.5730     3.4240    -3.9490 h1         1 NWK       0.048200
     39 H10         -1.6860     3.8180    -2.2310 h1         1 NWK       0.048200
     40 H11          0.4940     4.5750    -1.0810 h1         1 NWK       0.048200
     41 H12          1.9430     4.6190    -2.0850 h1         1 NWK       0.048200
     42 H13          0.9260     6.8770    -1.7430 h1         1 NWK       0.040700
     43 H14          1.0310     6.4190    -3.4520 h1         1 NWK       0.040700
     44 H15         -1.0450     5.7130    -4.5340 h1         1 NWK       0.040700
     45 H16         -2.5060     5.7050    -3.5300 h1         1 NWK       0.040700
     46 H17          4.9790     5.1150    -1.3530 hn         1 NWK       0.345500
     47 H18          9.4480     5.6400    -1.3210 hn         1 NWK       0.375000
     48 H19         10.5620     8.6650    -0.9870 hc         1 NWK       0.054700
     49 H20         11.0580     7.4540    -2.1670 hc         1 NWK       0.054700
     50 H21         10.3420     8.9730    -2.7050 hc         1 NWK       0.054700
     51 N1           5.6560     4.3880    -1.1600 ns         1 NWK      -0.379400
@<TRIPOS>BOND
     1     1    11 1   
     2     2     9 ar  
     3     2    21 ar  
     4     2    32 1   
     5     3     5 ar  
     6     3    19 1   
     7     3    21 ar  
     8     4    19 2   
     9     4    20 1   
    10     4    51 1   
    11     5     7 ar  
    12     5     8 1   
    13     6    17 1   
    14     6    18 1   
    15     7     9 ar  
    16     7    33 1   
    17     8    12 1   
    18     9    11 1   
    19    10    11 1   
    20    12    13 1   
    21    12    34 1   
    22    12    35 1   
    23    13    14 1   
    24    13    36 1   
    25    13    37 1   
    26    14    15 1   
    27    14    16 1   
    28    15    18 1   
    29    15    38 1   
    30    15    39 1   
    31    16    17 1   
    32    16    40 1   
    33    16    41 1   
    34    17    42 1   
    35    17    43 1   
    36    18    44 1   
    37    18    45 1   
    38    20    21 1   
    39    22    23 2   
    40    22    24 1   
    41    22    51 1   
    42    24    25 1   
    43    24    30 2   
    44    25    26 1   
    45    25    47 1   
    46    26    27 1   
    47    26    28 2   
    48    27    48 1   
    49    27    49 1   
    50    27    50 1   
    51    28    29 1   
    52    28    30 1   
    53    30    31 1   
    54    46    51 1   
@<TRIPOS>SUBSTRUCTURE
     1 NWK         1 TEMP              0 ****  ****    0 ROOT
