@<TRIPOS>MOLECULE
NWK
   51    54     1     0     0
SMALL
No Charge or Current Charge


@<TRIPOS>ATOM
      1 O1           1.4640    -2.6580    -0.3490 o          1 NWK      -0.711500
      2 C1           4.3090    -0.4220    -0.7280 ca         1 NWK      -0.060000
      3 C5           3.6220     1.9120    -0.5820 ca         1 NWK       0.073400
      4 C6           5.3810     3.2280    -0.8320 cc         1 NWK       0.400800
      5 C4           2.2750     1.5190    -0.3980 ca         1 NWK       0.111100
      6 O4           0.4290     5.7410    -3.9880 os         1 NWK      -0.459000
      7 C3           1.9620     0.1370    -0.3710 ca         1 NWK      -0.111000
      8 O3           1.3050     2.4980    -0.2380 os         1 NWK      -0.355100
      9 C2           2.9730    -0.8470    -0.5370 ca         1 NWK      -0.111600
     10 O2           3.5350    -3.1410    -0.6470 o          1 NWK      -0.711500
     11 C13          2.6310    -2.3290    -0.5090 c          1 NWK       0.713600
     12 C14         -0.1010     2.2710    -0.4840 c3         1 NWK       0.126600
     13 C15         -0.3600     1.9690    -1.9960 c3         1 NWK       0.155800
     14 N3          -0.1790     3.0870    -2.9730 n3         1 NWK      -0.738600
     15 C17         -1.1240     4.2340    -2.7890 c6         1 NWK       0.137800
     16 C18          1.2320     3.5740    -3.1190 c6         1 NWK       0.137800
     17 C19          1.3500     4.6510    -4.2380 c6         1 NWK       0.152100
     18 C16         -0.9500     5.3030    -3.9120 c6         1 NWK       0.152100
     19 N            4.0620     3.2370    -0.6320 nd         1 NWK      -0.580100
     20 S            6.1940     1.6450    -0.9710 ss         1 NWK       0.067800
     21 C            4.5980     0.9500    -0.7440 ca         1 NWK      -0.201000
     22 C7           7.3170     4.7540    -1.1150 c          1 NWK       0.642700
     23 O            8.1820     3.9000    -1.2340 o          1 NWK      -0.595100
     24 C8           7.6490     6.2000    -1.1750 cc         1 NWK      -0.222600
     25 N2           8.9290     6.7480    -1.3590 na         1 NWK      -0.052000
     26 C11          8.8840     8.1460    -1.3670 cc         1 NWK      -0.125300
     27 C12         10.0770     9.0460    -1.5410 c3         1 NWK      -0.029800
     28 C10          7.5690     8.4690    -1.1880 cd         1 NWK       0.029000
     29 Cl2          6.9000    10.0710    -1.1140 cl         1 NWK      -0.157000
     30 C9           6.8040     7.2880    -1.0700 cd         1 NWK       0.095000
     31 Cl1          5.0770     7.3400    -0.8360 cl         1 NWK      -0.138000
     32 H1           5.1110    -1.1460    -0.8600 ha         1 NWK       0.145000
     33 H2           0.9390    -0.1860    -0.2130 ha         1 NWK       0.142000
     34 H4          -0.6810     3.1550    -0.1920 h1         1 NWK       0.050200
     35 H5          -0.4720     1.4370     0.1250 h1         1 NWK       0.050200
     36 H6          -1.3940     1.6050    -2.0730 h1         1 NWK       0.057700
     37 H7           0.2720     1.1220    -2.2940 h1         1 NWK       0.057700
     38 H9          -2.1650     3.8800    -2.7960 h1         1 NWK       0.048200
     39 H10         -0.9550     4.7230    -1.8180 h1         1 NWK       0.048200
     40 H11          1.5870     4.0270    -2.1820 h1         1 NWK       0.048200
     41 H12          1.9080     2.7390    -3.3530 h1         1 NWK       0.048200
     42 H13          2.3750     5.0470    -4.2700 h1         1 NWK       0.040700
     43 H14          1.1240     4.2030    -5.2170 h1         1 NWK       0.040700
     44 H15         -1.2480     4.8790    -4.8820 h1         1 NWK       0.040700
     45 H16         -1.5930     6.1700    -3.7060 h1         1 NWK       0.040700
     46 H17          5.3900     5.2550    -0.8300 hn         1 NWK       0.345500
     47 H18          9.7770     6.1970    -1.4710 hn         1 NWK       0.375000
     48 H19         10.1970     9.7060    -0.6740 hc         1 NWK       0.054700
     49 H20         11.0030     8.4700    -1.6560 hc         1 NWK       0.054700
     50 H21          9.9610     9.6770    -2.4310 hc         1 NWK       0.054700
     51 N1           5.9940     4.4550    -0.9200 ns         1 NWK      -0.379400
@<TRIPOS>BOND
     1     1    11 1   
     2     2     9 ar  
     3     2    21 ar  
     4     2    32 1   
     5     3     5 ar  
     6     3    19 1   
     7     3    21 ar  
     8     4    19 2   
     9     4    20 1   
    10     4    51 1   
    11     5     7 ar  
    12     5     8 1   
    13     6    17 1   
    14     6    18 1   
    15     7     9 ar  
    16     7    33 1   
    17     8    12 1   
    18     9    11 1   
    19    10    11 1   
    20    12    13 1   
    21    12    34 1   
    22    12    35 1   
    23    13    14 1   
    24    13    36 1   
    25    13    37 1   
    26    14    15 1   
    27    14    16 1   
    28    15    18 1   
    29    15    38 1   
    30    15    39 1   
    31    16    17 1   
    32    16    40 1   
    33    16    41 1   
    34    17    42 1   
    35    17    43 1   
    36    18    44 1   
    37    18    45 1   
    38    20    21 1   
    39    22    23 2   
    40    22    24 1   
    41    22    51 1   
    42    24    25 1   
    43    24    30 2   
    44    25    26 1   
    45    25    47 1   
    46    26    27 1   
    47    26    28 2   
    48    27    48 1   
    49    27    49 1   
    50    27    50 1   
    51    28    29 1   
    52    28    30 1   
    53    30    31 1   
    54    46    51 1   
@<TRIPOS>SUBSTRUCTURE
     1 NWK         1 TEMP              0 ****  ****    0 ROOT
