@<TRIPOS>MOLECULE
NWL
   35    36     1     0     0
SMALL
No Charge or Current Charge


@<TRIPOS>ATOM
      1 CAA         21.8760   -44.1530     7.9270 ca         1 NWL      -0.107000
      2 CAB         21.5290   -42.8800     7.4410 ca         1 NWL      -0.099500
      3 CAC         21.4820   -41.7740     8.3140 ca         1 NWL      -0.129300
      4 CAD         21.1120   -40.3900     7.7830 c3         1 NWL       0.138300
      5 CAF         21.6670   -38.3650     9.1100 c          1 NWL       0.621000
      6 NAG         22.0800   -39.3160     8.1600 n          1 NWL      -0.335000
      7 CAH         23.3430   -39.2260     7.5790 cc         1 NWL       0.364600
      8 NAI         23.7140   -40.2440     6.7670 nv         1 NWL      -0.952000
      9 NAJ         22.5480   -37.3810     9.4010 ns         1 NWL      -0.462500
     10 CAK         23.7820   -37.1750     8.8880 c          1 NWL       0.586200
     11 CAL         24.2090   -38.1830     7.8710 cd         1 NWL      -0.248200
     12 NAM         25.4930   -38.0190     7.3080 nu         1 NWL      -0.741200
     13 CAN         25.8540   -38.1830     5.8860 c3         1 NWL       0.163800
     14 CAP         22.1230   -43.2320    10.1640 ca         1 NWL      -0.107000
     15 CAQ         21.7760   -41.9600     9.6790 ca         1 NWL      -0.099500
     16 OAQ         24.4680   -36.2300     9.2510 o          1 NWL      -0.562000
     17 CAR         26.9690   -39.2310     5.7210 c3         1 NWL      -0.089100
     18 CAS         22.1740   -44.3290     9.2880 ca         1 NWL      -0.101000
     19 HAA         21.9120   -45.0020     7.2480 ha         1 NWL       0.118500
     20 HAB         21.2960   -42.7580     6.3840 ha         1 NWL       0.118000
     21 HAD         21.0440   -40.4220     6.6870 h1         1 NWL       0.084200
     22 HADA        20.1010   -40.1460     8.1320 h1         1 NWL       0.084200
     23 HNAI        24.7040   -40.2500     6.5520 hn         1 NWL       0.500500
     24 HNAA        23.3070   -41.1540     6.9510 hn         1 NWL       0.500500
     25 HNAJ        22.2410   -36.7100    10.0870 hn         1 NWL       0.345500
     26 HNAM        26.0670   -37.3280     7.8040 hn         1 NWL       0.432000
     27 HAN         24.9800   -38.4700     5.2860 h1         1 NWL       0.039700
     28 HANA        26.2140   -37.2230     5.4910 h1         1 NWL       0.039700
     29 HAP         22.3510   -43.3680    11.2190 ha         1 NWL       0.118500
     30 HAQ         21.7380   -41.1180    10.3680 ha         1 NWL       0.118000
     31 HAR         27.2320   -39.3380     4.6620 hc         1 NWL       0.035033
     32 HARA        27.8700   -38.9270     6.2670 hc         1 NWL       0.035033
     33 HARB        26.6520   -40.2110     6.0960 hc         1 NWL       0.035033
     34 HAS         22.4420   -45.3150     9.6640 ha         1 NWL       0.118000
     35 OAE         20.5820   -38.3910     9.6680 o          1 NWL      -0.564000
@<TRIPOS>BOND
     1     1     2 ar  
     2     1    18 ar  
     3     1    19 1   
     4     2     3 ar  
     5     2    20 1   
     6     3     4 1   
     7     3    15 ar  
     8     4     6 1   
     9     4    21 1   
    10     4    22 1   
    11     5     6 1   
    12     5     9 1   
    13     5    35 2   
    14     6     7 1   
    15     7     8 1   
    16     7    11 2   
    17     8    23 1   
    18     8    24 1   
    19     9    10 1   
    20     9    25 1   
    21    10    11 1   
    22    10    16 2   
    23    11    12 1   
    24    12    13 1   
    25    12    26 1   
    26    13    17 1   
    27    13    27 1   
    28    13    28 1   
    29    14    15 ar  
    30    14    18 ar  
    31    14    29 1   
    32    15    30 1   
    33    17    31 1   
    34    17    32 1   
    35    17    33 1   
    36    18    34 1   
@<TRIPOS>SUBSTRUCTURE
     1 NWL         1 TEMP              0 ****  ****    0 ROOT
