@<TRIPOS>MOLECULE
NWL
   35    36     1     0     0
SMALL
abcg2


@<TRIPOS>ATOM
      1 CAA         21.7150   -44.3900     8.4870 ca         1 NWL      -0.107000
      2 CAB         21.5990   -43.2500     7.6980 ca         1 NWL      -0.099500
      3 CAC         21.6740   -41.9810     8.2710 ca         1 NWL      -0.129300
      4 CAD         21.4990   -40.7610     7.3950 c3         1 NWL       0.138300
      5 CAF         21.6350   -38.5460     8.4220 c          1 NWL       0.621000
      6 NAG         22.2980   -39.6070     7.8180 n          1 NWL      -0.335000
      7 CAH         23.6640   -39.5810     7.6030 cc         1 NWL       0.364600
      8 NAI         24.2280   -40.6590     7.0180 nv         1 NWL      -0.952000
      9 NAJ         22.4230   -37.4820     8.7520 ns         1 NWL      -0.462500
     10 CAK         23.8030   -37.3540     8.5510 c          1 NWL       0.586200
     11 CAL         24.4240   -38.4740     7.9290 cd         1 NWL      -0.248200
     12 NAM         25.8270   -38.5040     7.6890 nu         1 NWL      -0.741200
     13 CAN         26.2840   -37.6850     6.5470 c3         1 NWL       0.163800
     14 CAP         22.0000   -43.0060    10.4340 ca         1 NWL      -0.107000
     15 CAQ         21.8790   -41.8680     9.6460 ca         1 NWL      -0.099500
     16 OAQ         24.3700   -36.3250     8.9350 o          1 NWL      -0.562000
     17 CAR         25.8840   -38.2890     5.2100 c3         1 NWL      -0.089100
     18 CAS         21.9160   -44.2710     9.8580 ca         1 NWL      -0.101000
     19 HAA         21.6550   -45.3690     8.0290 ha         1 NWL       0.118500
     20 HAB         21.4530   -43.3460     6.6280 ha         1 NWL       0.118000
     21 HAD         21.7510   -40.9960     6.3610 h1         1 NWL       0.084200
     22 HADA        20.4630   -40.4320     7.4140 h1         1 NWL       0.084200
     23 HNAI        25.2380   -40.6350     7.0150 hn         1 NWL       0.500500
     24 HNAA        23.8020   -41.5670     7.1070 hn         1 NWL       0.500500
     25 HNAJ        21.9540   -36.7090     9.2040 hn         1 NWL       0.345500
     26 HNAM        26.3170   -38.2010     8.5230 hn         1 NWL       0.432000
     27 HAN         25.9000   -36.6600     6.6180 h1         1 NWL       0.039700
     28 HANA        27.3720   -37.6300     6.6180 h1         1 NWL       0.039700
     29 HAP         22.1600   -42.9050    11.5010 ha         1 NWL       0.118500
     30 HAQ         21.9510   -40.8900    10.1040 ha         1 NWL       0.118000
     31 HAR         26.2330   -37.6540     4.3930 hc         1 NWL       0.035033
     32 HARA        26.3160   -39.2830     5.0840 hc         1 NWL       0.035033
     33 HARB        24.7990   -38.3740     5.1260 hc         1 NWL       0.035033
     34 HAS         22.0130   -45.1560    10.4730 ha         1 NWL       0.118000
     35 OAE         20.4300   -38.5620     8.6430 o          1 NWL      -0.564000
@<TRIPOS>BOND
     1     1     2 ar  
     2     1    18 ar  
     3     1    19 1   
     4     2     3 ar  
     5     2    20 1   
     6     3     4 1   
     7     3    15 ar  
     8     4     6 1   
     9     4    21 1   
    10     4    22 1   
    11     5     6 1   
    12     5     9 1   
    13     5    35 2   
    14     6     7 1   
    15     7     8 1   
    16     7    11 2   
    17     8    23 1   
    18     8    24 1   
    19     9    10 1   
    20     9    25 1   
    21    10    11 1   
    22    10    16 2   
    23    11    12 1   
    24    12    13 1   
    25    12    26 1   
    26    13    17 1   
    27    13    27 1   
    28    13    28 1   
    29    14    15 ar  
    30    14    18 ar  
    31    14    29 1   
    32    15    30 1   
    33    17    31 1   
    34    17    32 1   
    35    17    33 1   
    36    18    34 1   
@<TRIPOS>SUBSTRUCTURE
     1 NWL         1 TEMP              0 ****  ****    0 ROOT
