@<TRIPOS>MOLECULE
NWM
   92    92     1     0     0
SMALL
abcg2


@<TRIPOS>ATOM
      1 C01          9.0740    -2.6750    -0.7780 ca         1 NWM      -0.088000
      2 C02          9.6880    -3.9040    -0.5730 ca         1 NWM      -0.115500
      3 C03         10.0390    -4.3000     0.7100 ca         1 NWM      -0.103000
      4 C04          9.7760    -3.4600     1.7870 ca         1 NWM      -0.115500
      5 C05          9.1650    -2.2320     1.5770 ca         1 NWM      -0.088000
      6 C06          8.8100    -1.8260     0.2930 ca         1 NWM      -0.088300
      7 C07          8.1100    -0.5170     0.0780 c3         1 NWM       0.208900
      8 O08          6.7470    -0.6820     0.4010 os         1 NWM      -0.458000
      9 C09          5.9980     0.4940     0.2020 c3         1 NWM       0.160600
     10 C10          4.5600     0.2070     0.5940 c3         1 NWM      -0.096400
     11 C11          3.6540     1.4290     0.5460 c3         1 NWM       0.188300
     12 O01          3.6470     1.9330    -0.8030 os         1 NWM      -0.464100
     13 C13          4.2810     3.0610    -1.1090 c          1 NWM       0.601100
     14 O02          4.9550     3.6930    -0.3360 o          1 NWM      -0.485000
     15 C15          4.0540     3.4290    -2.5520 c3         1 NWM      -0.137400
     16 C16          4.7510     4.7120    -2.9660 c3         1 NWM      -0.081100
     17 C25          2.1990     1.1130     0.9250 c3         1 NWM      -0.095700
     18 C18          2.1150     0.6670     2.3850 c3         1 NWM      -0.096100
     19 C26          1.2780     2.3160     0.6310 c3         1 NWM       0.172300
     20 O11          1.7870     3.4960     1.2240 oh         1 NWM      -0.653000
     21 C27         -0.2020     2.1010     0.9920 c3         1 NWM      -0.090700
     22 C39         -1.0210     3.3160     0.5580 c3         1 NWM      -0.088100
     23 C28         -0.7420     0.8100     0.3690 c3         1 NWM      -0.063400
     24 C29         -2.2090     0.5550     0.6730 c3         1 NWM      -0.179400
     25 C30         -2.7250    -0.7770     0.2080 c          1 NWM       0.573100
     26 O12         -2.0740    -1.5320    -0.4790 o          1 NWM      -0.510100
     27 C31         -4.1270    -1.1410     0.6770 c3         1 NWM      -0.174700
     28 C40         -4.0000    -2.0890     1.8710 c3         1 NWM      -0.085100
     29 C32         -4.9210    -1.7630    -0.4680 c3         1 NWM       0.188300
     30 O13         -4.9150    -0.7820    -1.5220 os         1 NWM      -0.470100
     31 C44         -4.5160    -1.1020    -2.7510 c          1 NWM       0.600100
     32 O32         -4.1800    -2.2080    -3.0920 o          1 NWM      -0.474000
     33 C08         -4.5190     0.1020    -3.6460 c3         1 NWM      -0.157100
     34 C33         -6.3690    -2.1350    -0.1300 c3         1 NWM      -0.064700
     35 C41         -7.0600    -2.7570    -1.3430 c3         1 NWM      -0.094100
     36 C34         -7.1590    -0.9600     0.4530 c3         1 NWM      -0.099400
     37 C35         -8.6060    -1.3130     0.7820 c3         1 NWM       0.103000
     38 N5          -9.2950    -0.2370     1.4690 n          1 NWM      -0.420800
     39 C43         -8.9210     0.0660     2.8340 c3         1 NWM       0.083300
     40 C42        -10.1560     0.5510     0.8130 c          1 NWM       0.597900
     41 O14        -10.7080     1.5350     1.2810 o          1 NWM      -0.601100
     42 H011         8.8030    -2.3700    -1.7820 ha         1 NWM       0.113000
     43 H021         9.8920    -4.5520    -1.4170 ha         1 NWM       0.112000
     44 H031        10.5200    -5.2560     0.8730 ha         1 NWM       0.111000
     45 H041        10.0480    -3.7640     2.7890 ha         1 NWM       0.112000
     46 H051         8.9690    -1.5790     2.4200 ha         1 NWM       0.113000
     47 H071         8.5590     0.2650     0.7060 h1         1 NWM       0.028200
     48 H072         8.2250    -0.1930    -0.9650 h1         1 NWM       0.028200
     49 H092         6.4000     1.3170     0.8100 h1         1 NWM       0.028200
     50 H091         6.0680     0.8090    -0.8480 h1         1 NWM       0.028200
     51 H101         4.1490    -0.5840    -0.0420 hc         1 NWM       0.062700
     52 H102         4.5620    -0.1770     1.6160 hc         1 NWM       0.062700
     53 H111         4.0430     2.2000     1.2150 h1         1 NWM       0.077700
     54 H151         4.3860     2.5910    -3.1720 hc         1 NWM       0.068200
     55 H152         2.9760     3.5050    -2.7190 hc         1 NWM       0.068200
     56 H163         4.3870     5.5680    -2.3980 hc         1 NWM       0.043700
     57 H162         5.8300     4.6500    -2.8260 hc         1 NWM       0.043700
     58 H161         4.5650     4.9110    -4.0210 hc         1 NWM       0.043700
     59 H251         1.8710     0.2800     0.2930 hc         1 NWM       0.070700
     60 H183         2.4700     1.4400     3.0700 hc         1 NWM       0.038700
     61 H182         1.0910     0.4220     2.6640 hc         1 NWM       0.038700
     62 H181         2.7100    -0.2240     2.5750 hc         1 NWM       0.038700
     63 H261         1.3090     2.5030    -0.4470 h1         1 NWM       0.080700
     64 H112         1.6840     3.4310     2.1790 ho         1 NWM       0.438000
     65 H271        -0.2880     2.0100     2.0830 hc         1 NWM       0.042700
     66 H392        -1.0290     3.4110    -0.5310 hc         1 NWM       0.038033
     67 H393        -2.0560     3.2420     0.8910 hc         1 NWM       0.038033
     68 H391        -0.6180     4.2400     0.9690 hc         1 NWM       0.038033
     69 H281        -0.5920     0.8420    -0.7150 hc         1 NWM       0.054700
     70 H282        -0.1690    -0.0450     0.7330 hc         1 NWM       0.054700
     71 H292        -2.4150     0.6440     1.7470 hc         1 NWM       0.063200
     72 H291        -2.8600     1.3040     0.2080 hc         1 NWM       0.063200
     73 H311        -4.6190    -0.2230     1.0120 hc         1 NWM       0.070700
     74 H403        -4.9730    -2.2990     2.3120 hc         1 NWM       0.045033
     75 H402        -3.5510    -3.0380     1.5750 hc         1 NWM       0.045033
     76 H401        -3.3810    -1.6520     2.6550 hc         1 NWM       0.045033
     77 H321        -4.4060    -2.6660    -0.8060 h1         1 NWM       0.090700
     78 H332        -3.6740     0.7470    -3.3960 hc         1 NWM       0.068700
     79 H333        -4.4240    -0.1990    -4.6860 hc         1 NWM       0.068700
     80 H331        -5.4250     0.6930    -3.5190 hc         1 NWM       0.068700
     81 H334        -6.3020    -2.9130     0.6380 hc         1 NWM       0.053700
     82 H412        -7.2670    -2.0150    -2.1160 hc         1 NWM       0.042033
     83 H413        -6.4450    -3.5420    -1.7830 hc         1 NWM       0.042033
     84 H411        -8.0100    -3.2130    -1.0650 hc         1 NWM       0.042033
     85 H341        -6.6740    -0.6160     1.3710 hc         1 NWM       0.052200
     86 H1          -7.1540    -0.1160    -0.2430 hc         1 NWM       0.052200
     87 H351        -9.1620    -1.5420    -0.1280 h1         1 NWM       0.050200
     88 H2          -8.6440    -2.2090     1.4090 h1         1 NWM       0.050200
     89 H431        -8.1490     0.8360     2.8910 h1         1 NWM       0.041700
     90 H432        -9.7870     0.4060     3.3980 h1         1 NWM       0.041700
     91 H433        -8.5390    -0.8370     3.3070 h1         1 NWM       0.041700
     92 H421       -10.3350     0.2130    -0.2190 h5         1 NWM       0.007200
@<TRIPOS>BOND
     1     1     2 ar  
     2     1     6 ar  
     3     1    42 1   
     4     2     3 ar  
     5     2    43 1   
     6     3     4 ar  
     7     3    44 1   
     8     4     5 ar  
     9     4    45 1   
    10     5     6 ar  
    11     5    46 1   
    12     6     7 1   
    13     7     8 1   
    14     7    47 1   
    15     7    48 1   
    16     8     9 1   
    17     9    10 1   
    18     9    49 1   
    19     9    50 1   
    20    10    11 1   
    21    10    51 1   
    22    10    52 1   
    23    11    12 1   
    24    11    17 1   
    25    11    53 1   
    26    12    13 1   
    27    13    14 2   
    28    13    15 1   
    29    15    16 1   
    30    15    54 1   
    31    15    55 1   
    32    16    56 1   
    33    16    57 1   
    34    16    58 1   
    35    17    18 1   
    36    17    19 1   
    37    17    59 1   
    38    18    60 1   
    39    18    61 1   
    40    18    62 1   
    41    19    20 1   
    42    19    21 1   
    43    19    63 1   
    44    20    64 1   
    45    21    22 1   
    46    21    23 1   
    47    21    65 1   
    48    22    66 1   
    49    22    67 1   
    50    22    68 1   
    51    23    24 1   
    52    23    69 1   
    53    23    70 1   
    54    24    25 1   
    55    24    71 1   
    56    24    72 1   
    57    25    26 2   
    58    25    27 1   
    59    27    28 1   
    60    27    29 1   
    61    27    73 1   
    62    28    74 1   
    63    28    75 1   
    64    28    76 1   
    65    29    30 1   
    66    29    34 1   
    67    29    77 1   
    68    30    31 1   
    69    31    32 2   
    70    31    33 1   
    71    33    78 1   
    72    33    79 1   
    73    33    80 1   
    74    34    35 1   
    75    34    36 1   
    76    34    81 1   
    77    35    82 1   
    78    35    83 1   
    79    35    84 1   
    80    36    37 1   
    81    36    85 1   
    82    36    86 1   
    83    37    38 1   
    84    37    87 1   
    85    37    88 1   
    86    38    39 1   
    87    38    40 1   
    88    39    89 1   
    89    39    90 1   
    90    39    91 1   
    91    40    41 2   
    92    40    92 1   
@<TRIPOS>SUBSTRUCTURE
     1 NWM         1 TEMP              0 ****  ****    0 ROOT
