@<TRIPOS>MOLECULE
NWM
   92    92     1     0     0
SMALL
No Charge or Current Charge


@<TRIPOS>ATOM
      1 C01          7.4940    -2.5620    -2.5010 ca         1 NWM      -0.088000
      2 C02          8.4290    -3.6110    -2.4480 ca         1 NWM      -0.115500
      3 C03          9.5990    -3.4720    -1.6820 ca         1 NWM      -0.103000
      4 C04          9.8330    -2.2840    -0.9680 ca         1 NWM      -0.115500
      5 C05          8.8980    -1.2350    -1.0210 ca         1 NWM      -0.088000
      6 C06          7.7240    -1.3680    -1.7890 ca         1 NWM      -0.088300
      7 C07          6.7120    -0.2310    -1.8480 c3         1 NWM       0.208900
      8 O08          5.7830    -0.3880    -0.7640 os         1 NWM      -0.458000
      9 C09          4.7660     0.6230    -0.7030 c3         1 NWM       0.160600
     10 C10          3.8700     0.3080     0.5100 c3         1 NWM      -0.096400
     11 C11          2.7810     1.3760     0.8010 c3         1 NWM       0.188300
     12 O01          1.9370     1.4560    -0.3680 os         1 NWM      -0.464100
     13 C13          2.1350     2.4530    -1.2880 c          1 NWM       0.601100
     14 O02          2.9520     3.3550    -1.1780 o          1 NWM      -0.485000
     15 C15          1.0980     2.3800    -2.4100 c3         1 NWM      -0.137400
     16 C16         -0.2040     3.1130    -2.0210 c3         1 NWM      -0.081100
     17 C25          1.8260     1.0320     1.9890 c3         1 NWM      -0.095700
     18 C18          2.5840     0.6500     3.2950 c3         1 NWM      -0.096100
     19 C26          0.7760     2.1800     2.2110 c3         1 NWM       0.172300
     20 O11          1.4740     3.3400     2.6870 oh         1 NWM      -0.653000
     21 C27         -0.4290     1.8660     3.1710 c3         1 NWM      -0.090700
     22 C39         -1.3530     3.1070     3.3430 c3         1 NWM      -0.088100
     23 C28         -1.2490     0.6300     2.6880 c3         1 NWM      -0.063400
     24 C29         -2.4480     0.2200     3.5800 c3         1 NWM      -0.179400
     25 C30         -3.0330    -1.1240     3.1180 c          1 NWM       0.573100
     26 O12         -2.5910    -2.1840     3.5460 o          1 NWM      -0.510100
     27 C31         -4.1940    -1.0830     2.1040 c3         1 NWM      -0.174700
     28 C40         -5.4980    -1.5810     2.7830 c3         1 NWM      -0.085100
     29 C32         -3.8000    -1.8740     0.8220 c3         1 NWM       0.188300
     30 O13         -2.6710    -1.1720     0.2590 os         1 NWM      -0.470100
     31 C44         -1.6200    -1.8780    -0.2670 c          1 NWM       0.600100
     32 O32         -1.4840    -3.0910    -0.2000 o          1 NWM      -0.474000
     33 C08         -0.5860    -0.9490    -0.8870 c3         1 NWM      -0.157100
     34 C33         -4.9090    -1.9840    -0.2840 c3         1 NWM      -0.064700
     35 C41         -4.4900    -2.9460    -1.4270 c3         1 NWM      -0.094100
     36 C34         -5.3730    -0.5990    -0.8330 c3         1 NWM      -0.099400
     37 C35         -6.5580    -0.6610    -1.8210 c3         1 NWM       0.103000
     38 N5          -7.0320     0.6770    -2.2210 n          1 NWM      -0.420800
     39 C43         -7.9490     1.4040    -1.3170 c3         1 NWM       0.083300
     40 C42         -6.6360     1.2330    -3.4510 c          1 NWM       0.597900
     41 O14         -7.0160     2.3340    -3.8340 o          1 NWM      -0.601100
     42 H011         6.5890    -2.6780    -3.0940 ha         1 NWM       0.113000
     43 H021         8.2460    -4.5300    -3.0000 ha         1 NWM       0.112000
     44 H031        10.3220    -4.2830    -1.6400 ha         1 NWM       0.111000
     45 H041        10.7380    -2.1760    -0.3740 ha         1 NWM       0.112000
     46 H051         9.0840    -0.3190    -0.4640 ha         1 NWM       0.113000
     47 H071         7.2370     0.7310    -1.7720 h1         1 NWM       0.028200
     48 H072         6.1880    -0.2550    -2.8130 h1         1 NWM       0.028200
     49 H092         5.2160     1.6170    -0.5800 h1         1 NWM       0.028200
     50 H091         4.1660     0.6200    -1.6230 h1         1 NWM       0.028200
     51 H101         3.3920    -0.6670     0.3610 hc         1 NWM       0.062700
     52 H102         4.5240     0.2170     1.3850 hc         1 NWM       0.062700
     53 H111         3.2720     2.3340     1.0220 h1         1 NWM       0.077700
     54 H151         1.5090     2.8340    -3.3190 hc         1 NWM       0.068200
     55 H152         0.8330     1.3310    -2.5840 hc         1 NWM       0.068200
     56 H163        -0.6500     2.6640    -1.1240 hc         1 NWM       0.043700
     57 H162        -0.0070     4.1720    -1.8150 hc         1 NWM       0.043700
     58 H161        -0.9370     3.0520    -2.8340 hc         1 NWM       0.043700
     59 H251         1.2900     0.1330     1.6700 hc         1 NWM       0.070700
     60 H183         3.2720     1.4470     3.6040 hc         1 NWM       0.038700
     61 H182         1.8900     0.4550     4.1190 hc         1 NWM       0.038700
     62 H181         3.1660    -0.2680     3.1570 hc         1 NWM       0.038700
     63 H261         0.3280     2.4120     1.2350 h1         1 NWM       0.080700
     64 H112         1.7080     3.1660     3.6220 ho         1 NWM       0.438000
     65 H271        -0.0310     1.6310     4.1650 hc         1 NWM       0.042700
     66 H392        -1.8380     3.3660     2.3930 hc         1 NWM       0.038033
     67 H393        -2.1340     2.9230     4.0890 hc         1 NWM       0.038033
     68 H391        -0.7950     3.9840     3.6900 hc         1 NWM       0.038033
     69 H281        -1.6130     0.8230     1.6710 hc         1 NWM       0.054700
     70 H282        -0.5900    -0.2430     2.6290 hc         1 NWM       0.054700
     71 H292        -2.1080     0.1290     4.6180 hc         1 NWM       0.063200
     72 H291        -3.2170     0.9960     3.4900 hc         1 NWM       0.063200
     73 H311        -4.3530    -0.0350     1.8310 hc         1 NWM       0.070700
     74 H403        -6.3730    -1.3990     2.1470 hc         1 NWM       0.045033
     75 H402        -5.4430    -2.6550     3.0000 hc         1 NWM       0.045033
     76 H401        -5.6650    -1.0500     3.7280 hc         1 NWM       0.045033
     77 H321        -3.5290    -2.8910     1.1400 h1         1 NWM       0.090700
     78 H332        -0.3520    -0.1460    -0.1810 hc         1 NWM       0.068700
     79 H333         0.3130    -1.4780    -1.2220 hc         1 NWM       0.068700
     80 H331        -1.0610    -0.4000    -1.7070 hc         1 NWM       0.068700
     81 H334        -5.7810    -2.4540     0.1850 hc         1 NWM       0.053700
     82 H412        -3.7210    -2.4960    -2.0640 hc         1 NWM       0.042033
     83 H413        -4.0960    -3.8850    -1.0190 hc         1 NWM       0.042033
     84 H411        -5.3470    -3.2050    -2.0590 hc         1 NWM       0.042033
     85 H341        -5.6740     0.0400     0.0040 hc         1 NWM       0.052200
     86 H1          -4.5300    -0.0960    -1.3230 hc         1 NWM       0.052200
     87 H351        -6.2640    -1.2190    -2.7200 h1         1 NWM       0.050200
     88 H2          -7.3900    -1.2060    -1.3550 h1         1 NWM       0.050200
     89 H431        -7.5030     2.3660    -1.0330 h1         1 NWM       0.041700
     90 H432        -8.9040     1.5860    -1.8260 h1         1 NWM       0.041700
     91 H433        -8.1370     0.8180    -0.4080 h1         1 NWM       0.041700
     92 H421        -5.9530     0.5800    -4.0260 h5         1 NWM       0.007200
@<TRIPOS>BOND
     1     1     2 ar  
     2     1     6 ar  
     3     1    42 1   
     4     2     3 ar  
     5     2    43 1   
     6     3     4 ar  
     7     3    44 1   
     8     4     5 ar  
     9     4    45 1   
    10     5     6 ar  
    11     5    46 1   
    12     6     7 1   
    13     7     8 1   
    14     7    47 1   
    15     7    48 1   
    16     8     9 1   
    17     9    10 1   
    18     9    49 1   
    19     9    50 1   
    20    10    11 1   
    21    10    51 1   
    22    10    52 1   
    23    11    12 1   
    24    11    17 1   
    25    11    53 1   
    26    12    13 1   
    27    13    14 2   
    28    13    15 1   
    29    15    16 1   
    30    15    54 1   
    31    15    55 1   
    32    16    56 1   
    33    16    57 1   
    34    16    58 1   
    35    17    18 1   
    36    17    19 1   
    37    17    59 1   
    38    18    60 1   
    39    18    61 1   
    40    18    62 1   
    41    19    20 1   
    42    19    21 1   
    43    19    63 1   
    44    20    64 1   
    45    21    22 1   
    46    21    23 1   
    47    21    65 1   
    48    22    66 1   
    49    22    67 1   
    50    22    68 1   
    51    23    24 1   
    52    23    69 1   
    53    23    70 1   
    54    24    25 1   
    55    24    71 1   
    56    24    72 1   
    57    25    26 2   
    58    25    27 1   
    59    27    28 1   
    60    27    29 1   
    61    27    73 1   
    62    28    74 1   
    63    28    75 1   
    64    28    76 1   
    65    29    30 1   
    66    29    34 1   
    67    29    77 1   
    68    30    31 1   
    69    31    32 2   
    70    31    33 1   
    71    33    78 1   
    72    33    79 1   
    73    33    80 1   
    74    34    35 1   
    75    34    36 1   
    76    34    81 1   
    77    35    82 1   
    78    35    83 1   
    79    35    84 1   
    80    36    37 1   
    81    36    85 1   
    82    36    86 1   
    83    37    38 1   
    84    37    87 1   
    85    37    88 1   
    86    38    39 1   
    87    38    40 1   
    88    39    89 1   
    89    39    90 1   
    90    39    91 1   
    91    40    41 2   
    92    40    92 1   
@<TRIPOS>SUBSTRUCTURE
     1 NWM         1 TEMP              0 ****  ****    0 ROOT
