@<TRIPOS>MOLECULE
NWO
   22    22     1     0     0
SMALL
No Charge or Current Charge


@<TRIPOS>ATOM
      1 C02         15.3200   -10.9360    12.9200 c6         1 NWO       0.172300
      2 C03         16.1620   -12.2220    12.6580 c6         1 NWO      -0.070400
      3 C04         17.6760   -11.9370    12.4020 c6         1 NWO      -0.060700
      4 C05         18.3500   -13.0900    11.6140 c3         1 NWO      -0.086100
      5 C06         17.8700   -10.5620    11.7120 c6         1 NWO      -0.074400
      6 C07         17.3430    -9.3950    12.5970 c6         1 NWO      -0.070400
      7 C08         16.1830    -9.8150    13.5460 c6         1 NWO      -0.110400
      8 O01         14.2090   -11.2370    13.7690 oh         1 NWO      -0.661000
      9 H1          14.9510   -10.5680    11.9520 h1         1 NWO       0.025700
     10 H2          15.7250   -12.7500    11.7990 hc         1 NWO       0.051200
     11 H3          16.0770   -12.9120    13.5100 hc         1 NWO       0.051200
     12 H4          18.1890   -11.9000    13.3740 hc         1 NWO       0.046700
     13 H5          18.2270   -14.0480    12.1320 hc         1 NWO       0.033367
     14 H6          17.9190   -13.1940    10.6100 hc         1 NWO       0.033367
     15 H7          19.4270   -12.9140    11.4970 hc         1 NWO       0.033367
     16 H8          18.9310   -10.3950    11.4790 hc         1 NWO       0.039700
     17 H9          17.3410   -10.5620    10.7490 hc         1 NWO       0.039700
     18 H10         18.1660    -8.9860    13.2000 hc         1 NWO       0.038700
     19 H11         17.0110    -8.5760    11.9440 hc         1 NWO       0.038700
     20 H12         16.5980   -10.1650    14.5010 hc         1 NWO       0.044700
     21 H13         15.5660    -8.9370    13.7800 hc         1 NWO       0.044700
     22 H14         13.6950   -10.4050    13.8610 ho         1 NWO       0.440000
@<TRIPOS>BOND
     1     1     2 1   
     2     1     7 1   
     3     1     8 1   
     4     1     9 1   
     5     2     3 1   
     6     2    10 1   
     7     2    11 1   
     8     3     4 1   
     9     3     5 1   
    10     3    12 1   
    11     4    13 1   
    12     4    14 1   
    13     4    15 1   
    14     5     6 1   
    15     5    16 1   
    16     5    17 1   
    17     6     7 1   
    18     6    18 1   
    19     6    19 1   
    20     7    20 1   
    21     7    21 1   
    22     8    22 1   
@<TRIPOS>SUBSTRUCTURE
     1 NWO         1 TEMP              0 ****  ****    0 ROOT
