@<TRIPOS>MOLECULE
NWO
   22    22     1     0     0
SMALL
bcc


@<TRIPOS>ATOM
      1 C02         15.3640   -10.9200    12.9040 c6         1 NWO       0.149100
      2 C03         16.1810   -12.1940    12.6770 c6         1 NWO      -0.070400
      3 C04         17.6710   -11.9140    12.4160 c6         1 NWO      -0.060700
      4 C05         18.3160   -13.0520    11.6390 c3         1 NWO      -0.086100
      5 C06         17.8330   -10.5710    11.7110 c6         1 NWO      -0.074400
      6 C07         17.3450    -9.4130    12.5970 c6         1 NWO      -0.070400
      7 C08         16.2270    -9.8480    13.5550 c6         1 NWO      -0.110400
      8 O01         14.2320   -11.2630    13.6810 oh         1 NWO      -0.598800
      9 H1          15.0380   -10.5330    11.9260 h1         1 NWO       0.025700
     10 H2          15.7590   -12.7520    11.8350 hc         1 NWO       0.051200
     11 H3          16.0850   -12.8350    13.5570 hc         1 NWO       0.051200
     12 H4          18.1820   -11.8420    13.3840 hc         1 NWO       0.046700
     13 H5          18.1650   -14.0120    12.1370 hc         1 NWO       0.033367
     14 H6          17.8880   -13.1320    10.6360 hc         1 NWO       0.033367
     15 H7          19.3910   -12.9000    11.5300 hc         1 NWO       0.033367
     16 H8          18.8770   -10.4130    11.4310 hc         1 NWO       0.039700
     17 H9          17.2680   -10.5980    10.7730 hc         1 NWO       0.039700
     18 H10         18.1790    -9.0140    13.1780 hc         1 NWO       0.038700
     19 H11         16.9940    -8.5940    11.9660 hc         1 NWO       0.038700
     20 H12         16.6470   -10.2420    14.4860 hc         1 NWO       0.044700
     21 H13         15.6170    -8.9830    13.8320 hc         1 NWO       0.044700
     22 H14         13.6770   -10.4800    13.7570 ho         1 NWO       0.401000
@<TRIPOS>BOND
     1     1     2 1   
     2     1     7 1   
     3     1     8 1   
     4     1     9 1   
     5     2     3 1   
     6     2    10 1   
     7     2    11 1   
     8     3     4 1   
     9     3     5 1   
    10     3    12 1   
    11     4    13 1   
    12     4    14 1   
    13     4    15 1   
    14     5     6 1   
    15     5    16 1   
    16     5    17 1   
    17     6     7 1   
    18     6    18 1   
    19     6    19 1   
    20     7    20 1   
    21     7    21 1   
    22     8    22 1   
@<TRIPOS>SUBSTRUCTURE
     1 NWO         1 TEMP              0 ****  ****    0 ROOT
