@<TRIPOS>MOLECULE
NWP
   35    35     1     0     0
SMALL
bcc


@<TRIPOS>ATOM
      1 N1           0.7850     0.5210     0.2480 n3         1 NWP      -0.770500
      2 C4           1.3620     1.6830    -0.4180 c6         1 NWP       0.184800
      3 C5           2.8540     1.6800    -0.1410 c6         1 NWP       0.129400
      4 C6           2.9150    -0.6440     0.1310 c6         1 NWP       0.140100
      5 C7           3.6280    -1.8870    -0.3540 c3         1 NWP      -0.090100
      6 C8           1.4130    -0.7450    -0.1070 c6         1 NWP       0.182800
      7 N           -1.5690    -0.3950    -0.3560 n3         1 NWP      -0.773500
      8 C           -3.9940    -0.4230     0.2610 c3         1 NWP      -0.105600
      9 O           -0.8070    -0.2800     2.0150 o          1 NWP      -0.626800
     10 C1          -2.7080    -1.2240     0.0870 c3         1 NWP       0.223500
     11 C2          -2.8930    -2.4000    -0.8630 c3         1 NWP      -0.105600
     12 C3          -1.6930     0.2710    -1.6460 c3         1 NWP       0.174100
     13 O1          -1.2170     1.8750     0.8260 o          1 NWP      -0.626800
     14 O2           3.4530     0.4730    -0.5500 os         1 NWP      -0.403600
     15 S           -0.7630     0.4920     0.7840 s6         1 NWP       1.436800
     16 H1           1.1840     1.6520    -1.4990 h1         1 NWP       0.062700
     17 H2           0.9270     2.5990    -0.0280 h1         1 NWP       0.062700
     18 H3           3.3290     2.4880    -0.6980 h1         1 NWP       0.055700
     19 H4           3.0240     1.8550     0.9300 h1         1 NWP       0.055700
     20 H5           3.0750    -0.5230     1.2130 h1         1 NWP       0.050700
     21 H6           3.4840    -2.0330    -1.4250 hc         1 NWP       0.046367
     22 H7           4.6980    -1.8260    -0.1560 hc         1 NWP       0.046367
     23 H8           3.2430    -2.7670     0.1620 hc         1 NWP       0.046367
     24 H9           1.0120    -1.5500     0.5080 h1         1 NWP       0.058200
     25 H10          1.2120    -0.9970    -1.1570 h1         1 NWP       0.058200
     26 H11         -4.3410    -0.0040    -0.6850 hc         1 NWP       0.043700
     27 H12         -4.7850    -1.0680     0.6440 hc         1 NWP       0.043700
     28 H13         -3.8650     0.3950     0.9710 hc         1 NWP       0.043700
     29 H14         -2.4230    -1.6380     1.0520 h1         1 NWP       0.085700
     30 H15         -1.9470    -2.9150    -1.0340 hc         1 NWP       0.043700
     31 H16         -3.5880    -3.1120    -0.4190 hc         1 NWP       0.043700
     32 H17         -3.3070    -2.1040    -1.8270 hc         1 NWP       0.043700
     33 H18         -2.3840     1.1160    -1.6400 h1         1 NWP       0.046367
     34 H19         -0.7220     0.6230    -1.9900 h1         1 NWP       0.046367
     35 H20         -2.0370    -0.4530    -2.3800 h1         1 NWP       0.046367
@<TRIPOS>BOND
     1     1     2 1   
     2     1     6 1   
     3     1    15 1   
     4     2     3 1   
     5     2    16 1   
     6     2    17 1   
     7     3    14 1   
     8     3    18 1   
     9     3    19 1   
    10     4     5 1   
    11     4     6 1   
    12     4    14 1   
    13     4    20 1   
    14     5    21 1   
    15     5    22 1   
    16     5    23 1   
    17     6    24 1   
    18     6    25 1   
    19     7    10 1   
    20     7    12 1   
    21     7    15 1   
    22     8    10 1   
    23     8    26 1   
    24     8    27 1   
    25     8    28 1   
    26     9    15 2   
    27    10    11 1   
    28    10    29 1   
    29    11    30 1   
    30    11    31 1   
    31    11    32 1   
    32    12    33 1   
    33    12    34 1   
    34    12    35 1   
    35    13    15 2   
@<TRIPOS>SUBSTRUCTURE
     1 NWP         1 TEMP              0 ****  ****    0 ROOT
