@<TRIPOS>MOLECULE
NWP
   35    35     1     0     0
SMALL
No Charge or Current Charge


@<TRIPOS>ATOM
      1 N1           0.7870     0.6010     0.5760 n3         1 NWP      -0.770500
      2 C4           1.4030     1.8040    -0.0540 c6         1 NWP       0.184800
      3 C5           2.9590     1.7250    -0.0440 c6         1 NWP       0.152600
      4 C6           2.8930    -0.6830     0.0430 c6         1 NWP       0.163300
      5 C7           3.4900    -1.9250    -0.6600 c3         1 NWP      -0.090100
      6 C8           1.3340    -0.6700     0.0130 c6         1 NWP       0.182800
      7 N           -1.4820    -0.4530    -0.3140 n3         1 NWP      -0.773500
      8 C           -3.9960    -0.4100     0.0880 c3         1 NWP      -0.105600
      9 O           -1.1310     0.1380     2.2020 o          1 NWP      -0.556000
     10 C1          -2.6830    -1.2300     0.0880 c3         1 NWP       0.223500
     11 C2          -2.8430    -2.5250    -0.7400 c3         1 NWP      -0.105600
     12 C3          -1.5180     0.0770    -1.6990 c3         1 NWP       0.174100
     13 O1          -1.4170     1.9950     0.4760 o          1 NWP      -0.556000
     14 O2           3.4140     0.4840    -0.6360 os         1 NWP      -0.450000
     15 S           -0.9090     0.6730     0.8570 s6         1 NWP       1.295200
     16 H1           1.0610     1.9140    -1.0940 h1         1 NWP       0.062700
     17 H2           1.1060     2.7180     0.4810 h1         1 NWP       0.062700
     18 H3           3.3790     2.5690    -0.6080 h1         1 NWP       0.055700
     19 H4           3.3270     1.7880     0.9900 h1         1 NWP       0.055700
     20 H5           3.2370    -0.6700     1.0880 h1         1 NWP       0.050700
     21 H6           3.1880    -1.9710    -1.7130 hc         1 NWP       0.046367
     22 H7           4.5850    -1.9090    -0.6220 hc         1 NWP       0.046367
     23 H8           3.1540    -2.8490    -0.1740 hc         1 NWP       0.046367
     24 H9           0.9640    -1.5330     0.5860 h1         1 NWP       0.058200
     25 H10          1.0120    -0.8110    -1.0280 h1         1 NWP       0.058200
     26 H11         -4.2640    -0.0860    -0.9240 hc         1 NWP       0.043700
     27 H12         -4.8220    -1.0180     0.4760 hc         1 NWP       0.043700
     28 H13         -3.9110     0.4780     0.7250 hc         1 NWP       0.043700
     29 H14         -2.5380    -1.5820     1.1200 h1         1 NWP       0.085700
     30 H15         -1.9010    -3.0840    -0.7640 hc         1 NWP       0.043700
     31 H16         -3.6080    -3.1700    -0.2920 hc         1 NWP       0.043700
     32 H17         -3.1470    -2.3100    -1.7700 hc         1 NWP       0.043700
     33 H18         -2.2970     0.8420    -1.8140 h1         1 NWP       0.046367
     34 H19         -0.5600     0.5360    -1.9730 h1         1 NWP       0.046367
     35 H20         -1.7110    -0.7190    -2.4290 h1         1 NWP       0.046367
@<TRIPOS>BOND
     1     1     2 1   
     2     1     6 1   
     3     1    15 1   
     4     2     3 1   
     5     2    16 1   
     6     2    17 1   
     7     3    14 1   
     8     3    18 1   
     9     3    19 1   
    10     4     5 1   
    11     4     6 1   
    12     4    14 1   
    13     4    20 1   
    14     5    21 1   
    15     5    22 1   
    16     5    23 1   
    17     6    24 1   
    18     6    25 1   
    19     7    10 1   
    20     7    12 1   
    21     7    15 1   
    22     8    10 1   
    23     8    26 1   
    24     8    27 1   
    25     8    28 1   
    26     9    15 2   
    27    10    11 1   
    28    10    29 1   
    29    11    30 1   
    30    11    31 1   
    31    11    32 1   
    32    12    33 1   
    33    12    34 1   
    34    12    35 1   
    35    13    15 2   
@<TRIPOS>SUBSTRUCTURE
     1 NWP         1 TEMP              0 ****  ****    0 ROOT
