@<TRIPOS>MOLECULE
NWQ
   35    37     1     0     0
SMALL
No Charge or Current Charge


@<TRIPOS>ATOM
      1 C13         -2.1830     1.0110     0.5370 c5         1 NWQ       0.077300
      2 C26          1.7280     0.2400     0.2820 ca         1 NWQ       0.114500
      3 C28          3.1500    -0.1990     2.0200 ca         1 NWQ       0.178900
      4 C02          3.3460    -1.5100     0.1560 ca         1 NWQ       0.446900
      5 C03          2.2980    -0.7780    -0.4400 ca         1 NWQ      -0.094600
      6 C05          0.7780     0.0420    -1.7260 cc         1 NWQ       0.421700
      7 C07         -0.1170     1.9050    -0.1970 c5         1 NWQ       0.322300
      8 C08         -1.1910     2.3560    -1.2450 c5         1 NWQ       0.102300
      9 C09         -2.2900     1.2730    -1.0070 c5         1 NWQ       0.092300
     10 C14         -2.2730    -0.5240     0.8160 c          1 NWQ       0.594100
     11 C16         -4.0200    -2.3320     0.7610 c3         1 NWQ       0.094300
     12 N01          3.9750    -2.5390    -0.4760 nv         1 NWQ      -1.061900
     13 N04          1.7180    -0.9220    -1.7030 nd         1 NWQ      -0.558100
     14 N06          0.7560     0.7650    -0.5240 na         1 NWQ      -0.316300
     15 N15         -3.5640    -0.9520     0.5810 ns         1 NWQ      -0.500900
     16 N27          2.1410     0.5580     1.5240 nb         1 NWQ      -0.223000
     17 N29          3.7770    -1.2260     1.3950 nb         1 NWQ      -0.302000
     18 O10         -3.5860     1.7650    -1.3950 oh         1 NWQ      -0.716000
     19 O11         -1.7400     3.6540    -0.9700 oh         1 NWQ      -0.701000
     20 O12         -0.9090     1.5770     0.9680 os         1 NWQ      -0.411000
     21 O25         -1.3920    -1.2710     1.2230 o          1 NWQ      -0.589100
     22 H1          -2.9880     1.5100     1.0910 h1         1 NWQ       0.087700
     23 H2           3.4930     0.0440     3.0240 h5         1 NWQ       0.045100
     24 H3           0.1160     0.2560    -2.5570 h5         1 NWQ       0.100800
     25 H4           0.5620     2.7370     0.0310 h2         1 NWQ       0.128700
     26 H5          -0.7960     2.3210    -2.2700 h1         1 NWQ       0.082700
     27 H6          -2.0460     0.3550    -1.5620 h1         1 NWQ       0.070700
     28 H7          -3.4410    -3.0000     0.1100 h1         1 NWQ       0.043700
     29 H8          -3.8840    -2.6330     1.8070 h1         1 NWQ       0.043700
     30 H9          -5.0830    -2.4050     0.4990 h1         1 NWQ       0.043700
     31 H10          4.4970    -3.1990     0.0940 hn         1 NWQ       0.504500
     32 H11          3.5290    -2.9080    -1.3120 hn         1 NWQ       0.504500
     33 H12         -4.2250    -0.2600     0.2420 hn         1 NWQ       0.325500
     34 H13         -3.7440     1.5000    -2.3350 ho         1 NWQ       0.525000
     35 H14         -2.7180     3.4910    -0.9870 ho         1 NWQ       0.523000
@<TRIPOS>BOND
     1     1     9 1   
     2     1    10 1   
     3     1    20 1   
     4     1    22 1   
     5     2     5 ar  
     6     2    14 1   
     7     2    16 ar  
     8     3    16 ar  
     9     3    17 ar  
    10     3    23 1   
    11     4     5 ar  
    12     4    12 1   
    13     4    17 ar  
    14     5    13 1   
    15     6    13 2   
    16     6    14 1   
    17     6    24 1   
    18     7     8 1   
    19     7    14 1   
    20     7    20 1   
    21     7    25 1   
    22     8     9 1   
    23     8    19 1   
    24     8    26 1   
    25     9    18 1   
    26     9    27 1   
    27    10    15 1   
    28    10    21 2   
    29    11    15 1   
    30    11    28 1   
    31    11    29 1   
    32    11    30 1   
    33    12    31 1   
    34    12    32 1   
    35    15    33 1   
    36    18    34 1   
    37    19    35 1   
@<TRIPOS>SUBSTRUCTURE
     1 NWQ         1 TEMP              0 ****  ****    0 ROOT
