@<TRIPOS>MOLECULE
NWQ
   35    37     1     0     0
SMALL
abcg2


@<TRIPOS>ATOM
      1 C13         -2.5130     0.5620     0.5840 c5         1 NWQ       0.077300
      2 C26          2.0210     0.2290     0.2830 ca         1 NWQ       0.114500
      3 C28          3.9490     1.2540     0.0710 ca         1 NWQ       0.178900
      4 C02          3.9360    -1.0060    -0.3680 ca         1 NWQ       0.446900
      5 C03          2.5600    -0.9970    -0.0730 ca         1 NWQ      -0.094600
      6 C05          0.5110    -1.3550     0.3070 cc         1 NWQ       0.421700
      7 C07         -0.2630     0.9920     0.9450 c5         1 NWQ       0.322300
      8 C08         -0.7130     1.8700    -0.2210 c5         1 NWQ       0.102300
      9 C09         -1.9210     1.0790    -0.7340 c5         1 NWQ       0.092300
     10 C14         -3.2770    -0.7390     0.3910 c          1 NWQ       0.594100
     11 C16         -5.3700    -1.6880    -0.4190 c3         1 NWQ       0.094300
     12 N01          4.5880    -2.1110    -0.7390 nv         1 NWQ      -1.061900
     13 N04          1.5990    -1.9740    -0.0520 nd         1 NWQ      -0.558100
     14 N06          0.7010    -0.0160     0.5220 na         1 NWQ      -0.316300
     15 N15         -4.5160    -0.5740    -0.0790 ns         1 NWQ      -0.500900
     16 N27          2.6690     1.3890     0.3710 nb         1 NWQ      -0.223000
     17 N29          4.6030     0.1500    -0.2840 nb         1 NWQ      -0.302000
     18 O10         -2.8630     1.8520    -1.4140 oh         1 NWQ      -0.716000
     19 O11         -1.1070     3.1040     0.3070 oh         1 NWQ      -0.701000
     20 O12         -1.4090     0.3610     1.4400 os         1 NWQ      -0.411000
     21 O25         -2.7780    -1.8340     0.6060 o          1 NWQ      -0.589100
     22 H1          -3.1810     1.3220     1.0090 h1         1 NWQ       0.087700
     23 H2           4.5500     2.1550     0.1210 h5         1 NWQ       0.045100
     24 H3          -0.4560    -1.8160     0.4370 h5         1 NWQ       0.100800
     25 H4           0.2120     1.5840     1.7310 h2         1 NWQ       0.128700
     26 H5           0.0700     1.9780    -0.9820 h1         1 NWQ       0.082700
     27 H6          -1.5680     0.2370    -1.3420 h1         1 NWQ       0.070700
     28 H7          -4.9160    -2.3240    -1.1800 h1         1 NWQ       0.043700
     29 H8          -5.5930    -2.3030     0.4530 h1         1 NWQ       0.043700
     30 H9          -6.3040    -1.2970    -0.8110 h1         1 NWQ       0.043700
     31 H10          5.5880    -2.0900    -0.8440 hn         1 NWQ       0.504500
     32 H11          4.1360    -3.0080    -0.7120 hn         1 NWQ       0.504500
     33 H12         -4.8610     0.3580    -0.2390 hn         1 NWQ       0.325500
     34 H13         -2.6350     1.8750    -2.3490 ho         1 NWQ       0.525000
     35 H14         -1.7750     3.4800    -0.2790 ho         1 NWQ       0.523000
@<TRIPOS>BOND
     1     1     9 1   
     2     1    10 1   
     3     1    20 1   
     4     1    22 1   
     5     2     5 ar  
     6     2    14 1   
     7     2    16 ar  
     8     3    16 ar  
     9     3    17 ar  
    10     3    23 1   
    11     4     5 ar  
    12     4    12 1   
    13     4    17 ar  
    14     5    13 1   
    15     6    13 2   
    16     6    14 1   
    17     6    24 1   
    18     7     8 1   
    19     7    14 1   
    20     7    20 1   
    21     7    25 1   
    22     8     9 1   
    23     8    19 1   
    24     8    26 1   
    25     9    18 1   
    26     9    27 1   
    27    10    15 1   
    28    10    21 2   
    29    11    15 1   
    30    11    28 1   
    31    11    29 1   
    32    11    30 1   
    33    12    31 1   
    34    12    32 1   
    35    15    33 1   
    36    18    34 1   
    37    19    35 1   
@<TRIPOS>SUBSTRUCTURE
     1 NWQ         1 TEMP              0 ****  ****    0 ROOT
