@<TRIPOS>MOLECULE
NWT
  107   111     1     0     0
SMALL
bcc


@<TRIPOS>ATOM
      1 C8          -2.8450     0.5470     0.6710 c3         1 NWT       0.032700
      2 C5          -7.3770    -1.2390     0.8110 c2         1 NWT      -0.076200
      3 C6          -6.3380    -0.5860     1.3240 ce         1 NWT      -0.260200
      4 N6           2.7230     2.1100     2.0180 n          1 NWT      -0.467800
      5 N1          -4.1060     0.2130     1.2650 ns         1 NWT      -0.558900
      6 C2         -11.1450    -0.4120     0.8350 c3         1 NWT      -0.074400
      7 N3           3.5320    -3.4930     0.3540 n          1 NWT      -0.479800
      8 C4          -8.7680    -1.1600     1.3380 c3         1 NWT      -0.058200
      9 C1         -12.0980     0.1770    -0.1960 c3         1 NWT      -0.089100
     10 C3          -9.7230    -0.5530     0.3070 c3         1 NWT      -0.075400
     11 C7          -5.0020    -0.6220     0.6890 c          1 NWT       0.678300
     12 O1          -4.7320    -1.3290    -0.2710 o          1 NWT      -0.604100
     13 C9          -2.9280     1.8830    -0.1080 c3         1 NWT      -0.058100
     14 C10         -4.0210     1.8250    -1.1330 ca         1 NWT      -0.026300
     15 C11         -5.3130     2.2190    -0.8010 ca         1 NWT      -0.179500
     16 C12         -6.3230     2.0510    -1.7270 ca         1 NWT       0.168400
     17 F1          -7.5690     2.4170    -1.3970 f          1 NWT      -0.138900
     18 C13         -6.1060     1.5210    -2.9830 ca         1 NWT      -0.213000
     19 C14         -4.8070     1.1560    -3.2850 ca         1 NWT       0.168400
     20 F2          -4.5570     0.6450    -4.4990 f          1 NWT      -0.138900
     21 C15         -3.7640     1.2930    -2.3930 ca         1 NWT      -0.179500
     22 C16         -1.7700     0.6450     1.7500 c          1 NWT       0.663100
     23 O2          -2.0470     0.7520     2.9330 o          1 NWT      -0.611100
     24 N2          -0.5160     0.6470     1.2760 ns         1 NWT      -0.554900
     25 C17          0.6410     0.8220     2.1110 c3         1 NWT       0.038700
     26 C18          1.1470    -0.5070     2.6600 c3         1 NWT       0.126400
     27 O3           1.3590    -1.4000     1.5670 os         1 NWT      -0.389900
     28 C19          1.9130    -2.5670     1.8570 c          1 NWT       0.638100
     29 O4           2.2690    -2.8760     2.9660 o          1 NWT      -0.540000
     30 C20          2.1010    -3.4710     0.6460 c5         1 NWT       0.050700
     31 C21          1.7510    -4.9370     0.9550 c5         1 NWT      -0.083400
     32 C22          2.9270    -5.7410     0.3930 c5         1 NWT      -0.084700
     33 C23          2.7660    -6.0480    -1.0910 c3         1 NWT      -0.091100
     34 C24          4.0990    -4.8000     0.6580 c5         1 NWT       0.108000
     35 C25          4.0650    -2.5220    -0.4240 c          1 NWT       0.643100
     36 O5           3.3580    -1.7150    -0.9990 o          1 NWT      -0.579100
     37 C26          5.6060    -2.4410    -0.5310 c3         1 NWT       0.048700
     38 C27          6.2730    -2.5110     0.8380 c3         1 NWT      -0.094100
     39 N4           5.8960    -1.2370    -1.2920 ns         1 NWT      -0.529900
     40 C28          6.3580    -0.0560    -0.8020 c          1 NWT       0.679100
     41 O6           7.2210     0.0770     0.0430 o          1 NWT      -0.576100
     42 C29          5.7930     1.1650    -1.5390 c6         1 NWT       0.025700
     43 C30          6.8650     1.7740    -2.4360 c6         1 NWT      -0.085400
     44 C31          6.3350     2.9760    -3.2170 c6         1 NWT      -0.073400
     45 C32          5.4230     3.8540    -2.3450 c6         1 NWT      -0.097400
     46 C33          5.6170     3.5550    -0.8670 c6         1 NWT       0.115000
     47 N5           5.3050     2.1610    -0.5880 n          1 NWT      -0.464800
     48 C34          4.5150     1.7210     0.4160 c          1 NWT       0.671100
     49 O7           4.3630     0.5340     0.6400 o          1 NWT      -0.585100
     50 C35          3.8240     2.7470     1.3140 c5         1 NWT       0.034700
     51 C36          4.7560     3.2300     2.4400 c5         1 NWT      -0.087400
     52 C37          3.8430     3.3090     3.6580 c5         1 NWT      -0.094400
     53 C38          2.9250     2.1130     3.4610 c5         1 NWT       0.103000
     54 C39          1.7050     1.5850     1.3200 c          1 NWT       0.682100
     55 O8           1.6070     1.7200     0.1100 o          1 NWT      -0.596100
     56 H1          -2.5850    -0.2490    -0.0290 h1         1 NWT       0.103700
     57 H2          -7.2280    -1.8460    -0.0780 ha         1 NWT       0.143000
     58 H5          -6.4680     0.0400     2.2020 ha         1 NWT       0.128000
     59 H6          -4.4080     0.7740     2.0460 hn         1 NWT       0.325500
     60 H7         -11.1360     0.2180     1.7290 hc         1 NWT       0.036700
     61 H8         -11.5110    -1.3920     1.1560 hc         1 NWT       0.036700
     62 H9          -9.1180    -2.1660     1.5940 hc         1 NWT       0.050700
     63 H10         -8.7870    -0.5700     2.2580 hc         1 NWT       0.050700
     64 H11        -13.1040     0.2870     0.2090 hc         1 NWT       0.032700
     65 H12        -11.7640     1.1630    -0.5230 hc         1 NWT       0.032700
     66 H13        -12.1650    -0.4580    -1.0810 hc         1 NWT       0.032700
     67 H14         -9.7260    -1.1760    -0.5940 hc         1 NWT       0.045200
     68 H15         -9.3450     0.4270    -0.0010 hc         1 NWT       0.045200
     69 H16         -3.1100     2.6960     0.5990 hc         1 NWT       0.063700
     70 H17         -1.9680     2.0860    -0.5870 hc         1 NWT       0.063700
     71 H18         -5.5360     2.6430     0.1700 ha         1 NWT       0.152500
     72 H19         -6.9100     1.4010    -3.6970 ha         1 NWT       0.167000
     73 H20         -2.7660     0.9800    -2.6720 ha         1 NWT       0.152500
     74 H21         -0.3540     0.5530     0.2840 hn         1 NWT       0.349500
     75 H22          0.3470     1.4190     2.9790 h1         1 NWT       0.088700
     76 H23          2.0660    -0.3710     3.2310 h1         1 NWT       0.064700
     77 H24          0.3960    -0.9260     3.3340 h1         1 NWT       0.064700
     78 H25          1.5420    -3.0930    -0.2090 h1         1 NWT       0.100700
     79 H26          1.6670    -5.0980     2.0290 hc         1 NWT       0.067200
     80 H27          0.7980    -5.2140     0.5040 hc         1 NWT       0.067200
     81 H28          3.0590    -6.6730     0.9460 hc         1 NWT       0.066700
     82 H29          2.6580    -5.1380    -1.6850 hc         1 NWT       0.039033
     83 H30          3.6290    -6.5930    -1.4750 hc         1 NWT       0.039033
     84 H31          1.8810    -6.6630    -1.2650 hc         1 NWT       0.039033
     85 H32          4.9590    -5.0190     0.0250 h1         1 NWT       0.057700
     86 H33          4.4210    -4.8610     1.7020 h1         1 NWT       0.057700
     87 H34          5.9480    -3.3030    -1.1170 h1         1 NWT       0.063700
     88 H35          6.0910    -3.4820     1.2890 hc         1 NWT       0.056033
     89 H36          7.3500    -2.3940     0.7510 hc         1 NWT       0.056033
     90 H37          5.8910    -1.7490     1.5130 hc         1 NWT       0.056033
     91 H38          5.1840    -1.1000    -1.9930 hn         1 NWT       0.305500
     92 H39          4.9500     0.8490    -2.1650 h1         1 NWT       0.065700
     93 H40          7.7200     2.0650    -1.8210 hc         1 NWT       0.060700
     94 H41          7.2260     1.0070    -3.1230 hc         1 NWT       0.060700
     95 H42          7.1830     3.5520    -3.5910 hc         1 NWT       0.045200
     96 H43          5.7850     2.6310    -4.0950 hc         1 NWT       0.045200
     97 H44          5.6130     4.9130    -2.5230 hc         1 NWT       0.052700
     98 H45          4.3740     3.6800    -2.5940 hc         1 NWT       0.052700
     99 H46          6.6440     3.7770    -0.5590 h1         1 NWT       0.046200
    100 H47          4.9750     4.2040    -0.2790 h1         1 NWT       0.046200
    101 H48          3.4390     3.5910     0.7370 h1         1 NWT       0.077700
    102 H49          5.5470     2.4980     2.6160 hc         1 NWT       0.064700
    103 H50          5.2310     4.1780     2.1940 hc         1 NWT       0.064700
    104 H51          4.3880     3.2600     4.6000 hc         1 NWT       0.058700
    105 H52          3.2630     4.2330     3.6480 hc         1 NWT       0.058700
    106 H53          1.9860     2.2110     4.0040 h1         1 NWT       0.056200
    107 H54          3.4180     1.1950     3.7920 h1         1 NWT       0.056200
@<TRIPOS>BOND
     1     1     5 1   
     2     1    13 1   
     3     1    22 1   
     4     1    56 1   
     5     2     3 2   
     6     2     8 1   
     7     2    57 1   
     8     3    11 1   
     9     3    58 1   
    10     4    50 1   
    11     4    53 1   
    12     4    54 1   
    13     5    11 1   
    14     5    59 1   
    15     6     9 1   
    16     6    10 1   
    17     6    60 1   
    18     6    61 1   
    19     7    30 1   
    20     7    34 1   
    21     7    35 1   
    22     8    10 1   
    23     8    62 1   
    24     8    63 1   
    25     9    64 1   
    26     9    65 1   
    27     9    66 1   
    28    10    67 1   
    29    10    68 1   
    30    11    12 2   
    31    13    14 1   
    32    13    69 1   
    33    13    70 1   
    34    14    15 ar  
    35    14    21 ar  
    36    15    16 ar  
    37    15    71 1   
    38    16    17 1   
    39    16    18 ar  
    40    18    19 ar  
    41    18    72 1   
    42    19    20 1   
    43    19    21 ar  
    44    21    73 1   
    45    22    23 2   
    46    22    24 1   
    47    24    25 1   
    48    24    74 1   
    49    25    26 1   
    50    25    54 1   
    51    25    75 1   
    52    26    27 1   
    53    26    76 1   
    54    26    77 1   
    55    27    28 1   
    56    28    29 2   
    57    28    30 1   
    58    30    31 1   
    59    30    78 1   
    60    31    32 1   
    61    31    79 1   
    62    31    80 1   
    63    32    33 1   
    64    32    34 1   
    65    32    81 1   
    66    33    82 1   
    67    33    83 1   
    68    33    84 1   
    69    34    85 1   
    70    34    86 1   
    71    35    36 2   
    72    35    37 1   
    73    37    38 1   
    74    37    39 1   
    75    37    87 1   
    76    38    88 1   
    77    38    89 1   
    78    38    90 1   
    79    39    40 1   
    80    39    91 1   
    81    40    41 2   
    82    40    42 1   
    83    42    43 1   
    84    42    47 1   
    85    42    92 1   
    86    43    44 1   
    87    43    93 1   
    88    43    94 1   
    89    44    45 1   
    90    44    95 1   
    91    44    96 1   
    92    45    46 1   
    93    45    97 1   
    94    45    98 1   
    95    46    47 1   
    96    46    99 1   
    97    46   100 1   
    98    47    48 1   
    99    48    49 2   
   100    48    50 1   
   101    50    51 1   
   102    50   101 1   
   103    51    52 1   
   104    51   102 1   
   105    51   103 1   
   106    52    53 1   
   107    52   104 1   
   108    52   105 1   
   109    53   106 1   
   110    53   107 1   
   111    54    55 2   
@<TRIPOS>SUBSTRUCTURE
     1 NWT         1 TEMP              0 ****  ****    0 ROOT
