@<TRIPOS>MOLECULE
NWT
  107   111     1     0     0
SMALL
No Charge or Current Charge


@<TRIPOS>ATOM
      1 C8          -3.0010     0.7670     0.3050 c3         1 NWT       0.032700
      2 C5          -7.0550    -2.0930     0.1450 c2         1 NWT      -0.126200
      3 C6          -6.0350    -1.4880     0.7970 ce         1 NWT      -0.310200
      4 N6           2.7370     2.9380     1.6840 n          1 NWT      -0.400800
      5 N1          -4.1160    -0.0510     0.8380 ns         1 NWT      -0.491900
      6 C2         -10.7260    -1.7370     1.4650 c3         1 NWT      -0.074400
      7 N3           3.1150    -3.3460     0.1920 n          1 NWT      -0.412800
      8 C4          -8.3660    -2.5120     0.7730 c3         1 NWT      -0.058200
      9 C1         -11.7260    -0.5670     1.5240 c3         1 NWT      -0.089100
     10 C3          -9.3720    -1.3430     0.8350 c3         1 NWT      -0.075400
     11 C7          -4.8030    -1.0030     0.1240 c          1 NWT       0.611300
     12 O1          -4.4750    -1.3540    -0.9990 o          1 NWT      -0.604100
     13 C9          -3.5290     2.1130    -0.2670 c3         1 NWT      -0.058100
     14 C10         -4.6590     1.9360    -1.2750 ca         1 NWT      -0.026300
     15 C11         -6.0040     1.9960    -0.8590 ca         1 NWT      -0.161500
     16 C12         -7.0410     1.7920    -1.7830 ca         1 NWT       0.203500
     17 F1          -8.3260     1.8380    -1.3700 f          1 NWT      -0.174000
     18 C13         -6.7510     1.5370    -3.1300 ca         1 NWT      -0.195000
     19 C14         -5.4150     1.4840    -3.5480 ca         1 NWT       0.203500
     20 F2          -5.1290     1.2360    -4.8450 f          1 NWT      -0.174000
     21 C15         -4.3710     1.6810    -2.6300 ca         1 NWT      -0.161500
     22 C16         -1.9190     1.0000     1.3980 c          1 NWT       0.596100
     23 O2          -2.1010     0.7600     2.5850 o          1 NWT      -0.611100
     24 N2          -0.7220     1.5050     0.9390 ns         1 NWT      -0.487900
     25 C17          0.4800     1.7480     1.7790 c3         1 NWT       0.038700
     26 C18          1.0810     0.4320     2.3580 c3         1 NWT       0.149600
     27 O3           1.1840    -0.5920     1.3400 os         1 NWT      -0.413100
     28 C19          1.7850    -1.7760     1.7100 c          1 NWT       0.589100
     29 O4           2.2590    -1.9660     2.8250 o          1 NWT      -0.491000
     30 C20          1.7610    -2.8260     0.5520 c5         1 NWT       0.050700
     31 C21          1.0510    -4.1230     1.0450 c5         1 NWT      -0.083400
     32 C22          1.6670    -5.2080     0.1180 c5         1 NWT      -0.084700
     33 C23          1.0860    -5.2280    -1.3200 c3         1 NWT      -0.091100
     34 C24          3.1720    -4.8240     0.1810 c5         1 NWT       0.108000
     35 C25          4.0100    -2.5570    -0.5560 c          1 NWT       0.576100
     36 O5           3.5600    -1.6340    -1.2230 o          1 NWT      -0.579100
     37 C26          5.5590    -2.8270    -0.4830 c3         1 NWT       0.048700
     38 C27          6.0670    -3.4040     0.8640 c3         1 NWT      -0.094100
     39 N4           6.2800    -1.5800    -0.8530 ns         1 NWT      -0.462900
     40 C28          6.1400    -0.3850    -0.1610 c          1 NWT       0.612100
     41 O6           5.6720    -0.3550     0.9720 o          1 NWT      -0.576100
     42 C29          6.4330     0.9130    -0.9790 c6         1 NWT       0.025700
     43 C30          7.9370     1.0470    -1.3460 c6         1 NWT      -0.085400
     44 C31          8.2070     2.2580    -2.2780 c6         1 NWT      -0.073400
     45 C32          7.2470     3.4500    -2.0160 c6         1 NWT      -0.097400
     46 C33          6.6320     3.4130    -0.5980 c6         1 NWT       0.115000
     47 N5           5.8440     2.1660    -0.3770 n          1 NWT      -0.397800
     48 C34          4.4530     2.1830    -0.0870 c          1 NWT       0.604100
     49 O7           3.7090     1.3440    -0.5780 o          1 NWT      -0.585100
     50 C35          4.0140     3.2660     0.9720 c5         1 NWT       0.034700
     51 C36          4.9920     3.3210     2.1900 c5         1 NWT      -0.087400
     52 C37          4.1190     4.0320     3.2500 c5         1 NWT      -0.094400
     53 C38          2.7800     3.2660     3.1290 c5         1 NWT       0.103000
     54 C39          1.5320     2.6120     1.0160 c          1 NWT       0.615100
     55 O8           1.3440     2.9740    -0.1420 o          1 NWT      -0.596100
     56 H1          -2.5110     0.2110    -0.5050 h1         1 NWT       0.103700
     57 H2          -6.9850    -2.3000    -0.9260 ha         1 NWT       0.193000
     58 H5          -6.1350    -1.2370     1.8520 ha         1 NWT       0.178000
     59 H6          -4.4560     0.1530     1.7700 hn         1 NWT       0.325500
     60 H7         -10.5580    -2.1140     2.4810 hc         1 NWT       0.036700
     61 H8         -11.1700    -2.5580     0.8880 hc         1 NWT       0.036700
     62 H9          -8.8060    -3.3370     0.1990 hc         1 NWT       0.050700
     63 H10         -8.1920    -2.8950     1.7870 hc         1 NWT       0.050700
     64 H11        -12.6700    -0.8940     1.9770 hc         1 NWT       0.032700
     65 H12        -11.3250     0.2570     2.1250 hc         1 NWT       0.032700
     66 H13        -11.9420    -0.1900     0.5170 hc         1 NWT       0.032700
     67 H14         -9.5430    -0.9630    -0.1810 hc         1 NWT       0.045200
     68 H15         -8.9310    -0.5200     1.4120 hc         1 NWT       0.045200
     69 H16         -3.8720     2.7400     0.5660 hc         1 NWT       0.063700
     70 H17         -2.7010     2.6610    -0.7320 hc         1 NWT       0.063700
     71 H18         -6.2490     2.1840     0.1830 ha         1 NWT       0.134500
     72 H19         -7.5550     1.3800    -3.8420 ha         1 NWT       0.149000
     73 H20         -3.3410     1.6250    -2.9720 ha         1 NWT       0.134500
     74 H21         -0.6440     1.6840    -0.0570 hn         1 NWT       0.349500
     75 H22          0.1660     2.3620     2.6330 h1         1 NWT       0.088700
     76 H23          2.0660     0.6280     2.7970 h1         1 NWT       0.064700
     77 H24          0.4320     0.0800     3.1710 h1         1 NWT       0.064700
     78 H25          1.2500    -2.3880    -0.3160 h1         1 NWT       0.100700
     79 H26          1.2850    -4.3430     2.0940 hc         1 NWT       0.067200
     80 H27         -0.0400    -4.0600     0.9670 hc         1 NWT       0.067200
     81 H28          1.5060    -6.2120     0.5270 hc         1 NWT       0.066700
     82 H29          1.2360    -4.2730    -1.8380 hc         1 NWT       0.039033
     83 H30          1.5650    -6.0090    -1.9220 hc         1 NWT       0.039033
     84 H31          0.0090    -5.4350    -1.3050 hc         1 NWT       0.039033
     85 H32          3.7390    -5.2210    -0.6720 h1         1 NWT       0.057700
     86 H33          3.6300    -5.1980     1.1070 h1         1 NWT       0.057700
     87 H34          5.7750    -3.5720    -1.2590 h1         1 NWT       0.063700
     88 H35          5.7760    -4.4530     0.9790 hc         1 NWT       0.056033
     89 H36          7.1620    -3.3660     0.9070 hc         1 NWT       0.056033
     90 H37          5.6690    -2.8440     1.7180 hc         1 NWT       0.056033
     91 H38          6.6470    -1.5100    -1.7950 hn         1 NWT       0.305500
     92 H39          5.9040     0.7490    -1.9290 h1         1 NWT       0.065700
     93 H40          8.5170     1.1630    -0.4200 hc         1 NWT       0.060700
     94 H41          8.3070     0.1280    -1.8220 hc         1 NWT       0.060700
     95 H42          9.2490     2.5820    -2.1490 hc         1 NWT       0.045200
     96 H43          8.1140     1.9480    -3.3280 hc         1 NWT       0.045200
     97 H44          7.7780     4.3990    -2.1710 hc         1 NWT       0.052700
     98 H45          6.4330     3.4310    -2.7530 hc         1 NWT       0.052700
     99 H46          7.4310     3.4740     0.1540 h1         1 NWT       0.046200
    100 H47          5.9920     4.2970    -0.4740 h1         1 NWT       0.046200
    101 H48          3.9400     4.2380     0.4680 h1         1 NWT       0.077700
    102 H49          5.2800     2.3150     2.5210 hc         1 NWT       0.064700
    103 H50          5.9130     3.8760     1.9870 hc         1 NWT       0.064700
    104 H51          4.5430     3.9760     4.2590 hc         1 NWT       0.058700
    105 H52          3.9900     5.0930     3.0070 hc         1 NWT       0.058700
    106 H53          1.9280     3.8840     3.4440 h1         1 NWT       0.056200
    107 H54          2.7980     2.3600     3.7470 h1         1 NWT       0.056200
@<TRIPOS>BOND
     1     1     5 1   
     2     1    13 1   
     3     1    22 1   
     4     1    56 1   
     5     2     3 2   
     6     2     8 1   
     7     2    57 1   
     8     3    11 1   
     9     3    58 1   
    10     4    50 1   
    11     4    53 1   
    12     4    54 1   
    13     5    11 1   
    14     5    59 1   
    15     6     9 1   
    16     6    10 1   
    17     6    60 1   
    18     6    61 1   
    19     7    30 1   
    20     7    34 1   
    21     7    35 1   
    22     8    10 1   
    23     8    62 1   
    24     8    63 1   
    25     9    64 1   
    26     9    65 1   
    27     9    66 1   
    28    10    67 1   
    29    10    68 1   
    30    11    12 2   
    31    13    14 1   
    32    13    69 1   
    33    13    70 1   
    34    14    15 ar  
    35    14    21 ar  
    36    15    16 ar  
    37    15    71 1   
    38    16    17 1   
    39    16    18 ar  
    40    18    19 ar  
    41    18    72 1   
    42    19    20 1   
    43    19    21 ar  
    44    21    73 1   
    45    22    23 2   
    46    22    24 1   
    47    24    25 1   
    48    24    74 1   
    49    25    26 1   
    50    25    54 1   
    51    25    75 1   
    52    26    27 1   
    53    26    76 1   
    54    26    77 1   
    55    27    28 1   
    56    28    29 2   
    57    28    30 1   
    58    30    31 1   
    59    30    78 1   
    60    31    32 1   
    61    31    79 1   
    62    31    80 1   
    63    32    33 1   
    64    32    34 1   
    65    32    81 1   
    66    33    82 1   
    67    33    83 1   
    68    33    84 1   
    69    34    85 1   
    70    34    86 1   
    71    35    36 2   
    72    35    37 1   
    73    37    38 1   
    74    37    39 1   
    75    37    87 1   
    76    38    88 1   
    77    38    89 1   
    78    38    90 1   
    79    39    40 1   
    80    39    91 1   
    81    40    41 2   
    82    40    42 1   
    83    42    43 1   
    84    42    47 1   
    85    42    92 1   
    86    43    44 1   
    87    43    93 1   
    88    43    94 1   
    89    44    45 1   
    90    44    95 1   
    91    44    96 1   
    92    45    46 1   
    93    45    97 1   
    94    45    98 1   
    95    46    47 1   
    96    46    99 1   
    97    46   100 1   
    98    47    48 1   
    99    48    49 2   
   100    48    50 1   
   101    50    51 1   
   102    50   101 1   
   103    51    52 1   
   104    51   102 1   
   105    51   103 1   
   106    52    53 1   
   107    52   104 1   
   108    52   105 1   
   109    53   106 1   
   110    53   107 1   
   111    54    55 2   
@<TRIPOS>SUBSTRUCTURE
     1 NWT         1 TEMP              0 ****  ****    0 ROOT
