@<TRIPOS>MOLECULE
NWV
   26    27     1     0     0
SMALL
No Charge or Current Charge


@<TRIPOS>ATOM
      1 N1           0.3270    -0.7130    -0.0030 ns         1 NWV      -0.496900
      2 C4           1.6210    -1.1740    -0.0780 c          1 NWV       0.534600
      3 C5           2.6360    -0.0870    -0.0780 cc         1 NWV       0.055500
      4 C6           3.9950    -0.2450    -0.1430 cd         1 NWV      -0.106000
      5 C7           4.5550     1.0490    -0.1150 cd         1 NWV      -0.200000
      6 C8           3.5210     1.9420    -0.0340 cc         1 NWV       0.141900
      7 N           -3.7550     0.6370    -0.2490 na         1 NWV       0.135800
      8 C           -4.6730     1.6200    -0.8420 c3         1 NWV       0.071900
      9 O            1.8820    -2.3700    -0.1370 o          1 NWV      -0.601100
     10 C1          -2.5930     0.1400    -0.8310 cc         1 NWV      -0.152000
     11 C2          -2.1000    -0.7310     0.1030 cd         1 NWV      -0.242300
     12 C3          -0.8540    -1.5640     0.0100 c3         1 NWV       0.193300
     13 C9          -2.9990    -0.7040     1.1910 cd         1 NWV       0.257900
     14 N2          -4.0120     0.1190     1.0030 nc         1 NWV      -0.525800
     15 O1           2.3240     1.2590    -0.0100 os         1 NWV      -0.242000
     16 H1           0.2000     0.2910     0.0420 hn         1 NWV       0.330500
     17 H2           4.5290    -1.1890    -0.2040 ha         1 NWV       0.159000
     18 H3           5.6110     1.2990    -0.1510 ha         1 NWV       0.146000
     19 H4           3.4920     3.0230     0.0110 h4         1 NWV       0.054100
     20 H5          -5.6700     1.1750    -0.9440 h1         1 NWV       0.057700
     21 H6          -4.7320     2.5030    -0.1960 h1         1 NWV       0.057700
     22 H7          -4.3070     1.9190    -1.8320 h1         1 NWV       0.057700
     23 H8          -2.2380     0.4350    -1.8110 h4         1 NWV       0.156000
     24 H9          -0.8780    -2.1620    -0.9100 h1         1 NWV       0.057200
     25 H10         -0.7960    -2.2470     0.8680 h1         1 NWV       0.057200
     26 H11         -2.9380    -1.2650     2.1160 h4         1 NWV       0.042100
@<TRIPOS>BOND
     1     1     2 1   
     2     1    12 1   
     3     1    16 1   
     4     2     3 1   
     5     2     9 2   
     6     3     4 2   
     7     3    15 1   
     8     4     5 1   
     9     4    17 1   
    10     5     6 2   
    11     5    18 1   
    12     6    15 1   
    13     6    19 1   
    14     7     8 1   
    15     7    10 1   
    16     7    14 1   
    17     8    20 1   
    18     8    21 1   
    19     8    22 1   
    20    10    11 2   
    21    10    23 1   
    22    11    12 1   
    23    11    13 1   
    24    12    24 1   
    25    12    25 1   
    26    13    14 2   
    27    13    26 1   
@<TRIPOS>SUBSTRUCTURE
     1 NWV         1 TEMP              0 ****  ****    0 ROOT
