@<TRIPOS>MOLECULE
NWV
   26    27     1     0     0
SMALL
bcc


@<TRIPOS>ATOM
      1 N1           0.3600    -0.5780    -0.0970 ns         1 NWV      -0.563900
      2 C4           1.5970    -1.0870    -0.1600 c          1 NWV       0.601600
      3 C5           2.7120    -0.1370    -0.0270 cc         1 NWV       0.165200
      4 C6           4.0520    -0.3500    -0.0840 cd         1 NWV      -0.189300
      5 C7           4.6620     0.9210     0.1030 cd         1 NWV      -0.283300
      6 C8           3.6460     1.8050     0.2590 cc         1 NWV       0.251600
      7 N           -3.8440     0.6220    -0.2640 na         1 NWV       0.114400
      8 C           -4.9280     1.3990    -0.8150 c3         1 NWV       0.042600
      9 O            1.8290    -2.2810    -0.3160 o          1 NWV      -0.601100
     10 C1          -2.8650    -0.0060    -0.9330 cc         1 NWV      -0.119300
     11 C2          -2.0570    -0.6120     0.0050 cd         1 NWV      -0.307600
     12 C3          -0.8230    -1.4120    -0.2310 c3         1 NWV       0.193300
     13 C9          -2.6550    -0.2690     1.2300 cd         1 NWV       0.323200
     14 N2          -3.7320     0.4730     1.0520 nc         1 NWV      -0.525800
     15 O1           2.4620     1.1750     0.1820 os         1 NWV      -0.330800
     16 H1           0.2230     0.4170    -0.0160 hn         1 NWV       0.330500
     17 H2           4.5420    -1.2960    -0.2440 ha         1 NWV       0.177000
     18 H3           5.7160     1.1480     0.1180 ha         1 NWV       0.164000
     19 H4           3.6190     2.8700     0.4270 h4         1 NWV       0.054100
     20 H5          -5.8830     1.0090    -0.4700 h1         1 NWV       0.057700
     21 H6          -4.8400     2.4420    -0.5180 h1         1 NWV       0.057700
     22 H7          -4.8920     1.3360    -1.8990 h1         1 NWV       0.057700
     23 H8          -2.8000     0.0130    -2.0080 h4         1 NWV       0.174000
     24 H9          -0.8520    -1.8630    -1.2260 h1         1 NWV       0.057200
     25 H10         -0.7660    -2.2340     0.4860 h1         1 NWV       0.057200
     26 H11         -2.3370    -0.5450     2.2250 h4         1 NWV       0.042100
@<TRIPOS>BOND
     1     1     2 1   
     2     1    12 1   
     3     1    16 1   
     4     2     3 1   
     5     2     9 2   
     6     3     4 2   
     7     3    15 1   
     8     4     5 1   
     9     4    17 1   
    10     5     6 2   
    11     5    18 1   
    12     6    15 1   
    13     6    19 1   
    14     7     8 1   
    15     7    10 1   
    16     7    14 1   
    17     8    20 1   
    18     8    21 1   
    19     8    22 1   
    20    10    11 2   
    21    10    23 1   
    22    11    12 1   
    23    11    13 1   
    24    12    24 1   
    25    12    25 1   
    26    13    14 2   
    27    13    26 1   
@<TRIPOS>SUBSTRUCTURE
     1 NWV         1 TEMP              0 ****  ****    0 ROOT
