@<TRIPOS>MOLECULE
NWW
   32    34     1     0     0
SMALL
abcg2


@<TRIPOS>ATOM
      1 C4           1.7550    -0.2890    -0.2850 ca         1 NWW       0.114500
      2 C5           2.4080     0.8830     0.0580 ca         1 NWW      -0.095600
      3 C6           3.7770     0.7650     0.3600 ca         1 NWW       0.449900
      4 C8           0.4060     1.4330    -0.3410 cc         1 NWW       0.420700
      5 N1           4.3310    -0.4510     0.2960 nb         1 NWW      -0.303000
      6 N3           2.2900    -1.5080    -0.3540 nb         1 NWW      -0.225000
      7 C2           3.5760    -1.4910    -0.0490 ca         1 NWW       0.179900
      8 CAW         -3.4070     1.1560    -0.2590 c          1 NWW       0.603100
      9 CBB         -2.1940    -0.8210     0.7740 c5         1 NWW       0.092300
     10 CBC         -1.0830    -1.7040     0.1950 c5         1 NWW       0.104300
     11 CBD         -2.7760    -0.2070    -0.5060 c5         1 NWW       0.073300
     12 CBE         -0.5910    -0.8330    -0.9580 c5         1 NWW       0.323300
     13 N6           4.5320     1.8080     0.7100 nv         1 NWW      -1.064900
     14 N7           1.5480     1.9480     0.0150 nd         1 NWW      -0.559100
     15 N9           0.4650     0.0780    -0.5330 na         1 NWW      -0.317300
     16 OAC         -2.8440     2.2000    -0.5410 o          1 NWW      -0.587100
     17 OAD         -3.1840    -1.5260     1.4630 oh         1 NWW      -0.717000
     18 OAE         -1.6080    -2.8760    -0.3600 oh         1 NWW      -0.701000
     19 OAU         -1.6910    -0.0910    -1.3990 os         1 NWW      -0.411000
     20 H1          -0.5080     1.9880    -0.4850 h5         1 NWW       0.100800
     21 H2           4.0870    -2.4480    -0.0830 h5         1 NWW       0.045100
     22 H3          -1.7430    -0.0390     1.3990 h1         1 NWW       0.069700
     23 H4          -0.2910    -1.9090     0.9250 h1         1 NWW       0.084700
     24 H5          -3.5320    -0.8850    -0.9220 h1         1 NWW       0.088700
     25 H6          -0.1910    -1.4360    -1.7770 h2         1 NWW       0.127700
     26 H7           4.1580     2.7400     0.7210 hn         1 NWW       0.506500
     27 H8           5.5180     1.6890     0.8690 hn         1 NWW       0.506500
     28 H9          -5.0450     0.2090     0.5470 hn         1 NWW       0.322500
     29 H10         -5.0990     1.9280     0.5830 hn         1 NWW       0.322500
     30 H11         -2.9290    -1.6030     2.3880 ho         1 NWW       0.524000
     31 H12         -2.2840    -3.2150     0.2400 ho         1 NWW       0.524000
     32 NAT         -4.6110     1.0880     0.3190 nt         1 NWW      -0.604000
@<TRIPOS>BOND
     1     1     2 ar  
     2     1     6 ar  
     3     1    15 1   
     4     2     3 ar  
     5     2    14 1   
     6     3     5 ar  
     7     3    13 1   
     8     4    14 2   
     9     4    15 1   
    10     4    20 1   
    11     5     7 ar  
    12     6     7 ar  
    13     7    21 1   
    14     8    11 1   
    15     8    16 2   
    16     8    32 1   
    17     9    10 1   
    18     9    11 1   
    19     9    17 1   
    20     9    22 1   
    21    10    12 1   
    22    10    18 1   
    23    10    23 1   
    24    11    19 1   
    25    11    24 1   
    26    12    15 1   
    27    12    19 1   
    28    12    25 1   
    29    13    26 1   
    30    13    27 1   
    31    17    30 1   
    32    18    31 1   
    33    28    32 1   
    34    29    32 1   
@<TRIPOS>SUBSTRUCTURE
     1 NWW         1 TEMP              0 ****  ****    0 ROOT
