@<TRIPOS>MOLECULE
NWW
   32    34     1     0     0
SMALL
No Charge or Current Charge


@<TRIPOS>ATOM
      1 C4           1.8760    -0.3150    -0.2720 ca         1 NWW       0.114500
      2 C5           2.6040     0.5600     0.4930 ca         1 NWW      -0.095600
      3 C6           3.9060     0.8940     0.0640 ca         1 NWW       0.449900
      4 C8           0.7200     0.3520     1.5130 cc         1 NWW       0.420700
      5 N1           4.4210     0.3760    -1.0620 nb         1 NWW      -0.303000
      6 N3           2.3630    -0.8580    -1.4050 nb         1 NWW      -0.225000
      7 C2           3.6200    -0.4800    -1.7440 ca         1 NWW       0.179900
      8 CAW         -3.1080     0.9230    -1.2400 c          1 NWW       0.603100
      9 CBB         -2.5550    -0.5510     0.7970 c5         1 NWW       0.092300
     10 CBC         -1.5240    -1.6990     1.0030 c5         1 NWW       0.104300
     11 CBD         -2.5350    -0.4490    -0.7580 c5         1 NWW       0.073300
     12 CBE         -0.4350    -1.3110    -0.0650 c5         1 NWW       0.323300
     13 N6           4.7070     1.7530     0.7490 nv         1 NWW      -1.064900
     14 N7           1.8990     0.9940     1.6190 nd         1 NWW      -0.559100
     15 N9           0.6760    -0.4540     0.3670 na         1 NWW      -0.317300
     16 OAC         -2.5340     1.7400    -1.9450 o          1 NWW      -0.587100
     17 OAD         -3.8450    -0.9140     1.3260 oh         1 NWW      -0.717000
     18 OAE         -2.1600    -2.9600     0.7320 oh         1 NWW      -0.701000
     19 OAU         -1.1400    -0.6270    -1.1320 os         1 NWW      -0.411000
     20 H1          -0.1050     0.4290     2.2120 h5         1 NWW       0.100800
     21 H2           4.0280    -0.9080    -2.6580 h5         1 NWW       0.045100
     22 H3          -2.2000     0.3890     1.2440 h1         1 NWW       0.069700
     23 H4          -1.1090    -1.6970     2.0210 h1         1 NWW       0.084700
     24 H5          -3.1310    -1.2490    -1.2170 h1         1 NWW       0.088700
     25 H6           0.0360    -2.2250    -0.4520 h2         1 NWW       0.127700
     26 H7           4.2580     2.3160     1.4680 hn         1 NWW       0.506500
     27 H8           5.4850     2.1820     0.2560 hn         1 NWW       0.506500
     28 H9          -4.8250     0.5390    -0.1920 hn         1 NWW       0.322500
     29 H10         -4.8020     2.0620    -1.0690 hn         1 NWW       0.322500
     30 H11         -3.8690    -0.6480     2.2780 ho         1 NWW       0.524000
     31 H12         -3.1210    -2.7750     0.8870 ho         1 NWW       0.524000
     32 NAT         -4.3610     1.1930    -0.8080 nt         1 NWW      -0.604000
@<TRIPOS>BOND
     1     1     2 ar  
     2     1     6 ar  
     3     1    15 1   
     4     2     3 ar  
     5     2    14 1   
     6     3     5 ar  
     7     3    13 1   
     8     4    14 2   
     9     4    15 1   
    10     4    20 1   
    11     5     7 ar  
    12     6     7 ar  
    13     7    21 1   
    14     8    11 1   
    15     8    16 2   
    16     8    32 1   
    17     9    10 1   
    18     9    11 1   
    19     9    17 1   
    20     9    22 1   
    21    10    12 1   
    22    10    18 1   
    23    10    23 1   
    24    11    19 1   
    25    11    24 1   
    26    12    15 1   
    27    12    19 1   
    28    12    25 1   
    29    13    26 1   
    30    13    27 1   
    31    17    30 1   
    32    18    31 1   
    33    28    32 1   
    34    29    32 1   
@<TRIPOS>SUBSTRUCTURE
     1 NWW         1 TEMP              0 ****  ****    0 ROOT
