@<TRIPOS>MOLECULE
NWY
   31    32     1     0     0
SMALL
abcg2


@<TRIPOS>ATOM
      1 N1          -3.7080     0.5710    -0.8960 nb         1 NWY      -0.678000
      2 C4          -1.4810     0.8350    -0.0390 ca         1 NWY      -0.174300
      3 C5          -0.1730     1.5790    -0.0780 c3         1 NWY       0.153300
      4 C6           1.8430     0.2140     0.3280 c          1 NWY       0.612100
      5 C7           2.9430    -0.5650    -0.3460 cy         1 NWY      -0.176700
      6 C8           3.5150    -1.7920     0.3880 cy         1 NWY      -0.074400
      7 C10          4.3600     0.0580    -0.2930 cy         1 NWY      -0.074400
      8 N            0.9310     0.7500    -0.5040 ns         1 NWY      -0.504900
      9 C           -5.2440    -1.1310    -0.1380 c3         1 NWY      -0.144400
     10 O            1.8140     0.3730     1.5420 o          1 NWY      -0.607100
     11 C1          -3.9080    -0.4570    -0.0750 ca         1 NWY       0.359300
     12 C11         -2.5330     1.1880    -0.8730 ca         1 NWY       0.348900
     13 C2          -2.9140    -0.8890     0.8020 ca         1 NWY      -0.166000
     14 C3          -1.6940    -0.2380     0.8200 ca         1 NWY      -0.051000
     15 C9           4.9250    -1.3520    -0.0470 cy         1 NWY      -0.091400
     16 H1          -0.2540     2.4270    -0.7600 h1         1 NWY       0.064700
     17 H2           0.0610     1.9840     0.9060 h1         1 NWY       0.064700
     18 H3           2.6800    -0.8170    -1.3760 hc         1 NWY       0.058700
     19 H4           3.3810    -1.7030     1.4660 hc         1 NWY       0.060450
     20 H5           3.1600    -2.7710     0.0670 hc         1 NWY       0.060450
     21 H6           4.6950     0.6010    -1.1770 hc         1 NWY       0.060450
     22 H7           4.4790     0.6990     0.5810 hc         1 NWY       0.060450
     23 H8           0.9950     0.5380    -1.4860 hn         1 NWY       0.313500
     24 H9          -5.4180    -1.5480    -1.1310 hc         1 NWY       0.051367
     25 H10         -5.3220    -1.9400     0.5870 hc         1 NWY       0.051367
     26 H11         -6.0470    -0.4190     0.0570 hc         1 NWY       0.051367
     27 H12         -2.4150     2.0190    -1.5620 h4         1 NWY       0.013100
     28 H13         -3.0990    -1.7260     1.4630 ha         1 NWY       0.123000
     29 H14         -0.9150    -0.5600     1.5010 ha         1 NWY       0.134000
     30 H15          5.7320    -1.4510     0.6790 hc         1 NWY       0.051700
     31 H16          5.2330    -1.8320    -0.9760 hc         1 NWY       0.051700
@<TRIPOS>BOND
     1     1    11 ar  
     2     1    12 ar  
     3     2     3 1   
     4     2    12 ar  
     5     2    14 ar  
     6     3     8 1   
     7     3    16 1   
     8     3    17 1   
     9     4     5 1   
    10     4     8 1   
    11     4    10 2   
    12     5     6 1   
    13     5     7 1   
    14     5    18 1   
    15     6    15 1   
    16     6    19 1   
    17     6    20 1   
    18     7    15 1   
    19     7    21 1   
    20     7    22 1   
    21     8    23 1   
    22     9    11 1   
    23     9    24 1   
    24     9    25 1   
    25     9    26 1   
    26    11    13 ar  
    27    12    27 1   
    28    13    14 ar  
    29    13    28 1   
    30    14    29 1   
    31    15    30 1   
    32    15    31 1   
@<TRIPOS>SUBSTRUCTURE
     1 NWY         1 TEMP              0 ****  ****    0 ROOT
