@<TRIPOS>MOLECULE
NWY
   31    32     1     0     0
SMALL
No Charge or Current Charge


@<TRIPOS>ATOM
      1 N1          -3.4780     0.5480    -1.0910 nb         1 NWY      -0.678000
      2 C4          -1.3890     0.7750     0.1270 ca         1 NWY      -0.174300
      3 C5          -0.0270     1.4370     0.2440 c3         1 NWY       0.153300
      4 C6           1.8360    -0.2530     0.5120 c          1 NWY       0.612100
      5 C7           2.8100    -1.0450    -0.4620 cy         1 NWY      -0.176700
      6 C8           3.8210    -1.6600     0.5860 cy         1 NWY      -0.074400
      7 C10          3.8760     0.1070    -0.6300 cy         1 NWY      -0.074400
      8 N            1.0340     0.5620    -0.2600 ns         1 NWY      -0.504900
      9 C           -5.2610    -0.9590    -0.3910 c3         1 NWY      -0.144400
     10 O            1.6520    -0.2760     1.7230 o          1 NWY      -0.607100
     11 C1          -3.8810    -0.3660    -0.1800 ca         1 NWY       0.359300
     12 C11         -2.2540     1.1020    -0.9340 ca         1 NWY       0.348900
     13 C2          -3.0830    -0.7510     0.9130 ca         1 NWY      -0.166000
     14 C3          -1.8140    -0.1740     1.0740 ca         1 NWY      -0.051000
     15 C9           4.9140    -1.0390    -0.3560 cy         1 NWY      -0.091400
     16 H1          -0.0150     2.3690    -0.3370 h1         1 NWY       0.064700
     17 H2           0.1690     1.7040     1.2920 h1         1 NWY       0.064700
     18 H3           2.4220    -1.6130    -1.3140 hc         1 NWY       0.058700
     19 H4           3.8640    -1.2510     1.6030 hc         1 NWY       0.060450
     20 H5           3.8250    -2.7530     0.6560 hc         1 NWY       0.060450
     21 H6           3.9310     0.5660    -1.6230 hc         1 NWY       0.060450
     22 H7           3.8990     0.9070     0.1240 hc         1 NWY       0.060450
     23 H8           1.2030     0.5400    -1.2580 hn         1 NWY       0.313500
     24 H9          -5.4550    -1.1490    -1.4540 hc         1 NWY       0.051367
     25 H10         -5.3710    -1.9120     0.1400 hc         1 NWY       0.051367
     26 H11         -6.0360    -0.2780    -0.0230 hc         1 NWY       0.051367
     27 H12         -1.9590     1.8330    -1.6870 h4         1 NWY       0.013100
     28 H13         -3.4460    -1.4870     1.6250 ha         1 NWY       0.123000
     29 H14         -1.1780    -0.4560     1.9110 ha         1 NWY       0.134000
     30 H15          5.8470    -0.7340     0.1300 hc         1 NWY       0.051700
     31 H16          5.1630    -1.6500    -1.2320 hc         1 NWY       0.051700
@<TRIPOS>BOND
     1     1    11 ar  
     2     1    12 ar  
     3     2     3 1   
     4     2    12 ar  
     5     2    14 ar  
     6     3     8 1   
     7     3    16 1   
     8     3    17 1   
     9     4     5 1   
    10     4     8 1   
    11     4    10 2   
    12     5     6 1   
    13     5     7 1   
    14     5    18 1   
    15     6    15 1   
    16     6    19 1   
    17     6    20 1   
    18     7    15 1   
    19     7    21 1   
    20     7    22 1   
    21     8    23 1   
    22     9    11 1   
    23     9    24 1   
    24     9    25 1   
    25     9    26 1   
    26    11    13 ar  
    27    12    27 1   
    28    13    14 ar  
    29    13    28 1   
    30    14    29 1   
    31    15    30 1   
    32    15    31 1   
@<TRIPOS>SUBSTRUCTURE
     1 NWY         1 TEMP              0 ****  ****    0 ROOT
