@<TRIPOS>MOLECULE
NWZ
   47    50     1     0     0
SMALL
abcg2


@<TRIPOS>ATOM
      1 C13         -0.9780     1.3430     0.5410 c5         1 NWZ       0.077300
      2 C17         -5.5810     0.1630     0.9300 c6         1 NWZ      -0.090900
      3 C20         -5.7990    -1.7800    -1.1960 c6         1 NWZ       0.161800
      4 C21         -4.6140    -0.8250    -1.1550 c6         1 NWZ      -0.090900
      5 C02          5.0420    -1.5650    -0.1340 ca         1 NWZ       0.450900
      6 C03          3.7070    -1.2380     0.1660 ca         1 NWZ      -0.095600
      7 C05          1.6480    -1.1200     0.6310 cc         1 NWZ       0.420700
      8 C07          1.3330     1.4100     0.7250 c5         1 NWZ       0.322300
      9 C08          0.9630     2.0550    -0.6090 c5         1 NWZ       0.102300
     10 C09         -0.4030     1.4140    -0.8790 c5         1 NWZ       0.093300
     11 C14         -1.9710     0.2000     0.6860 c          1 NWZ       0.601100
     12 C16         -4.3230    -0.4110     0.2860 c6         1 NWZ       0.106700
     13 C18         -6.7270    -0.8320     0.8070 c6         1 NWZ       0.161800
     14 C23          3.4120     0.1140     0.2420 ca         1 NWZ       0.115500
     15 C25          5.4780     0.6940    -0.2150 ca         1 NWZ       0.179900
     16 N04          2.5910    -1.9920     0.4130 nd         1 NWZ      -0.560100
     17 N06          2.0830     0.1750     0.5420 na         1 NWZ      -0.314300
     18 N15         -3.2260     0.5340     0.3650 ns         1 NWZ      -0.493900
     19 N19         -6.9590    -1.1540    -0.5890 n7         1 NWZ      -0.865400
     20 N24          4.2590     1.1250     0.0580 nb         1 NWZ      -0.224000
     21 N26          5.9070    -0.5620    -0.3200 nb         1 NWZ      -0.304000
     22 O10         -1.2370     2.1770    -1.6980 oh         1 NWZ      -0.714000
     23 O11          0.8350     3.4310    -0.3920 oh         1 NWZ      -0.701000
     24 O12          0.1320     1.1340     1.3860 os         1 NWZ      -0.413000
     25 O22         -1.6200    -0.9220     1.0200 o          1 NWZ      -0.596100
     26 H1          -1.4620     2.2960     0.7870 h1         1 NWZ       0.086700
     27 H3          -5.8560     1.0990     0.4320 hc         1 NWZ       0.052200
     28 H4          -6.0340    -2.0390    -2.2290 h1         1 NWZ       0.034200
     29 H5          -5.5130    -2.7180    -0.6900 h1         1 NWZ       0.034200
     30 H6          -3.7350    -1.3010    -1.5950 hc         1 NWZ       0.052200
     31 H7          -4.8410     0.0640    -1.7520 hc         1 NWZ       0.052200
     32 H8           0.6220    -1.3570     0.8670 h5         1 NWZ       0.101800
     33 H9           1.9540     2.0760     1.3290 h2         1 NWZ       0.128700
     34 H10          1.6970     1.8290    -1.3920 h1         1 NWZ       0.082700
     35 H11         -0.2570     0.4020    -1.2770 h1         1 NWZ       0.070700
     36 H12         -4.0180    -1.2960     0.8490 h1         1 NWZ       0.080700
     37 H13         -6.4830    -1.7230     1.4110 h1         1 NWZ       0.034200
     38 H14         -7.6370    -0.4040     1.2300 h1         1 NWZ       0.034200
     39 H15          6.2300     1.4580    -0.3790 h5         1 NWZ       0.045100
     40 H16          6.4330    -3.0190    -0.4470 hn         1 NWZ       0.507000
     41 H17          4.8470    -3.5990    -0.0880 hn         1 NWZ       0.507000
     42 H18         -3.4140     1.4850     0.0820 hn         1 NWZ       0.320500
     43 H19         -7.7550    -1.7740    -0.6650 hn         1 NWZ       0.415000
     44 H21         -1.0890     1.9290    -2.6160 ho         1 NWZ       0.524000
     45 H22          0.2030     3.7740    -1.0360 ho         1 NWZ       0.524000
     46 N01          5.4700    -2.8240    -0.2360 nv         1 NWZ      -1.066900
     47 H2          -5.3960     0.3910     1.9820 hc         1 NWZ       0.052200
@<TRIPOS>BOND
     1     1    10 1   
     2     1    11 1   
     3     1    24 1   
     4     1    26 1   
     5     2    12 1   
     6     2    13 1   
     7     2    27 1   
     8     2    47 1   
     9     3     4 1   
    10     3    19 1   
    11     3    28 1   
    12     3    29 1   
    13     4    12 1   
    14     4    30 1   
    15     4    31 1   
    16     5     6 ar  
    17     5    21 ar  
    18     5    46 1   
    19     6    14 ar  
    20     6    16 1   
    21     7    16 2   
    22     7    17 1   
    23     7    32 1   
    24     8     9 1   
    25     8    17 1   
    26     8    24 1   
    27     8    33 1   
    28     9    10 1   
    29     9    23 1   
    30     9    34 1   
    31    10    22 1   
    32    10    35 1   
    33    11    18 1   
    34    11    25 2   
    35    12    18 1   
    36    12    36 1   
    37    13    19 1   
    38    13    37 1   
    39    13    38 1   
    40    14    17 1   
    41    14    20 ar  
    42    15    20 ar  
    43    15    21 ar  
    44    15    39 1   
    45    18    42 1   
    46    19    43 1   
    47    22    44 1   
    48    23    45 1   
    49    40    46 1   
    50    41    46 1   
@<TRIPOS>SUBSTRUCTURE
     1 NWZ         1 TEMP              0 ****  ****    0 ROOT
