@<TRIPOS>MOLECULE
NWZ
   47    50     1     0     0
SMALL
No Charge or Current Charge


@<TRIPOS>ATOM
      1 C13         -0.7110     2.0850     0.3800 c5         1 NWZ       0.077300
      2 C17         -5.0330     0.0480     0.7620 c6         1 NWZ      -0.090900
      3 C20         -4.4530    -2.6260    -0.3070 c6         1 NWZ       0.161800
      4 C21         -3.4420    -1.4680    -0.4790 c6         1 NWZ      -0.090900
      5 C02          3.5590    -2.2220     0.3280 ca         1 NWZ       0.450900
      6 C03          2.8400    -1.2160    -0.3520 ca         1 NWZ      -0.095600
      7 C05          1.7120    -0.0180    -1.7400 cc         1 NWZ       0.420700
      8 C07          1.5290     2.1560    -0.3790 c5         1 NWZ       0.322300
      9 C08          0.6680     2.8640    -1.4810 c5         1 NWZ       0.102300
     10 C09         -0.7340     2.2470    -1.1820 c5         1 NWZ       0.093300
     11 C14         -1.3110     0.6970     0.7740 c          1 NWZ       0.601100
     12 C16         -3.5680    -0.4460     0.6780 c6         1 NWZ       0.106700
     13 C18         -6.0100    -1.1430     0.9100 c6         1 NWZ       0.161800
     14 C23          2.6660    -0.0080     0.2750 ca         1 NWZ       0.115500
     15 C25          3.8370    -0.7810     2.0830 ca         1 NWZ       0.179900
     16 N04          2.2490    -1.2470    -1.6180 nd         1 NWZ      -0.560100
     17 N06          1.9450     0.7600    -0.5960 na         1 NWZ      -0.314300
     18 N15         -2.6580     0.6870     0.4720 ns         1 NWZ      -0.493900
     19 N19         -5.8390    -2.1110    -0.1990 n7         1 NWZ      -0.865400
     20 N24          3.1640     0.2410     1.5030 nb         1 NWZ      -0.224000
     21 N26          4.0600    -2.0090     1.5550 nb         1 NWZ      -0.304000
     22 O10         -1.7860     3.1210    -1.6290 oh         1 NWZ      -0.714000
     23 O11          0.6030     4.2900    -1.3190 oh         1 NWZ      -0.701000
     24 O12          0.6820     2.2230     0.7910 os         1 NWZ      -0.413000
     25 O22         -0.7400    -0.2510     1.2990 o          1 NWZ      -0.596100
     26 H1          -1.2990     2.8660     0.8790 h1         1 NWZ       0.086700
     27 H3          -5.2910     0.6230    -0.1380 hc         1 NWZ       0.052200
     28 H4          -4.3800    -3.3100    -1.1650 h1         1 NWZ       0.034200
     29 H5          -4.2040    -3.2000     0.5990 h1         1 NWZ       0.034200
     30 H6          -2.4220    -1.8750    -0.5140 hc         1 NWZ       0.052200
     31 H7          -3.6150    -0.9700    -1.4430 hc         1 NWZ       0.052200
     32 H8           1.1700     0.3490    -2.6040 h5         1 NWZ       0.101800
     33 H9           2.4580     2.7140    -0.2060 h2         1 NWZ       0.128700
     34 H10          1.0190     2.6130    -2.4920 h1         1 NWZ       0.082700
     35 H11         -0.8260     1.2610    -1.6620 h1         1 NWZ       0.070700
     36 H12         -3.3060    -0.9410     1.6260 h1         1 NWZ       0.080700
     37 H13         -5.8290    -1.6490     1.8700 h1         1 NWZ       0.034200
     38 H14         -7.0450    -0.7720     0.9180 h1         1 NWZ       0.034200
     39 H15          4.2420    -0.5960     3.0770 h5         1 NWZ       0.045100
     40 H16          4.0330    -4.2070     0.4270 hn         1 NWZ       0.507000
     41 H17          3.2360    -3.7060    -1.0250 hn         1 NWZ       0.507000
     42 H18         -3.0270     1.5250     0.0360 hn         1 NWZ       0.320500
     43 H19         -6.4780    -2.9040    -0.0510 hn         1 NWZ       0.415000
     44 H21         -2.0100     2.8770    -2.5620 ho         1 NWZ       0.524000
     45 H22         -0.3710     4.4730    -1.3340 ho         1 NWZ       0.524000
     46 N01          3.7840    -3.4520    -0.2060 nv         1 NWZ      -1.066900
     47 H2          -5.1510     0.7280     1.6160 hc         1 NWZ       0.052200
@<TRIPOS>BOND
     1     1    10 1   
     2     1    11 1   
     3     1    24 1   
     4     1    26 1   
     5     2    12 1   
     6     2    13 1   
     7     2    27 1   
     8     2    47 1   
     9     3     4 1   
    10     3    19 1   
    11     3    28 1   
    12     3    29 1   
    13     4    12 1   
    14     4    30 1   
    15     4    31 1   
    16     5     6 ar  
    17     5    21 ar  
    18     5    46 1   
    19     6    14 ar  
    20     6    16 1   
    21     7    16 2   
    22     7    17 1   
    23     7    32 1   
    24     8     9 1   
    25     8    17 1   
    26     8    24 1   
    27     8    33 1   
    28     9    10 1   
    29     9    23 1   
    30     9    34 1   
    31    10    22 1   
    32    10    35 1   
    33    11    18 1   
    34    11    25 2   
    35    12    18 1   
    36    12    36 1   
    37    13    19 1   
    38    13    37 1   
    39    13    38 1   
    40    14    17 1   
    41    14    20 ar  
    42    15    20 ar  
    43    15    21 ar  
    44    15    39 1   
    45    18    42 1   
    46    19    43 1   
    47    22    44 1   
    48    23    45 1   
    49    40    46 1   
    50    41    46 1   
@<TRIPOS>SUBSTRUCTURE
     1 NWZ         1 TEMP              0 ****  ****    0 ROOT
