@<TRIPOS>MOLECULE
NX0
   26    27     1     0     0
SMALL
bcc


@<TRIPOS>ATOM
      1 C1           4.7300     7.8920    42.2580 c3         1 NX0      -0.079100
      2 C2           5.8710     8.8010    42.6830 c3         1 NX0      -0.152400
      3 C3           7.1100     8.0340    43.0960 c          1 NX0       0.675100
      4 C6           8.2270    10.2110    43.6020 c6         1 NX0       0.059000
      5 C7           9.3800    10.5910    42.7000 c6         1 NX0       0.117400
      6 C11         11.7990     7.2060    44.7600 ca         1 NX0       0.428200
      7 C12         10.6780     6.4670    45.0910 ca         1 NX0      -0.271300
      8 C13          9.4340     6.9620    44.7280 ca         1 NX0      -0.057000
      9 C14          9.3490     8.1570    44.0290 ca         1 NX0      -0.133700
     10 O4           7.1890     6.8280    42.9630 o          1 NX0      -0.568100
     11 N5           8.1360     8.7610    43.6450 n          1 NX0      -0.386000
     12 O8          10.6010    10.0270    43.1590 os         1 NX0      -0.418100
     13 C9          10.5540     8.8330    43.7680 ca         1 NX0       0.623600
     14 N10         11.7330     8.3690    44.1240 nb         1 NX0      -0.686000
     15 H15          3.8690     8.4970    41.9760 hc         1 NX0       0.045033
     16 H16          4.9980     7.2770    41.4010 hc         1 NX0       0.045033
     17 H1           4.4200     7.2300    43.0660 hc         1 NX0       0.045033
     18 H17          6.1250     9.4790    41.8620 hc         1 NX0       0.057700
     19 H25          5.5480     9.4410    43.5080 hc         1 NX0       0.057700
     20 H19          7.3160    10.6560    43.2180 h1         1 NX0       0.068700
     21 H21          9.5220    11.6710    42.6850 h1         1 NX0       0.065700
     22 H20          9.1790    10.2550    41.6790 h1         1 NX0       0.065700
     23 H22         12.7900     6.8560    45.0220 h4         1 NX0       0.024100
     24 H23         10.7680     5.5340    45.6300 ha         1 NX0       0.147000
     25 H24          8.5400     6.4220    45.0000 ha         1 NX0       0.156000
     26 H18          8.3790    10.5970    44.6130 h1         1 NX0       0.068700
@<TRIPOS>BOND
     1     1     2 1   
     2     1    15 1   
     3     1    16 1   
     4     1    17 1   
     5     2     3 1   
     6     2    18 1   
     7     2    19 1   
     8     3    10 2   
     9     3    11 1   
    10     4     5 1   
    11     4    11 1   
    12     4    20 1   
    13     4    26 1   
    14     5    12 1   
    15     5    21 1   
    16     5    22 1   
    17     6     7 ar  
    18     6    14 ar  
    19     6    23 1   
    20     7     8 ar  
    21     7    24 1   
    22     8     9 ar  
    23     8    25 1   
    24     9    11 1   
    25     9    13 ar  
    26    12    13 1   
    27    13    14 ar  
@<TRIPOS>SUBSTRUCTURE
     1 NX0         1 TEMP              0 ****  ****    0 ROOT
