@<TRIPOS>MOLECULE
NX0
   26    27     1     0     0
SMALL
No Charge or Current Charge


@<TRIPOS>ATOM
      1 C1           4.5590     7.7720    42.6460 c3         1 NX0      -0.079100
      2 C2           5.7620     8.7440    42.6920 c3         1 NX0      -0.152400
      3 C3           7.1490     8.0720    42.8010 c          1 NX0       0.608100
      4 C6           8.2500    10.2940    43.2580 c6         1 NX0       0.059000
      5 C7           9.6400    10.7510    42.7730 c6         1 NX0       0.140600
      6 C11         11.7570     7.1640    44.9980 ca         1 NX0       0.362900
      7 C12         10.6120     6.3570    44.9630 ca         1 NX0      -0.188000
      8 C13          9.4160     6.8810    44.4530 ca         1 NX0      -0.039000
      9 C14          9.3990     8.2200    44.0040 ca         1 NX0      -0.161000
     10 O4           7.3070     6.9200    42.4110 o          1 NX0      -0.568100
     11 N5           8.2150     8.8130    43.3910 n          1 NX0      -0.226400
     12 O8          10.6810    10.2540    43.6370 os         1 NX0      -0.441300
     13 C9          10.6250     8.9460    44.0570 ca         1 NX0       0.558300
     14 N10         11.7690     8.4370    44.5560 nb         1 NX0      -0.686000
     15 H15          3.6180     8.3320    42.5840 hc         1 NX0       0.045033
     16 H16          4.6210     7.1130    41.7720 hc         1 NX0       0.045033
     17 H1           4.5290     7.1500    43.5490 hc         1 NX0       0.045033
     18 H17          5.7700     9.3710    41.7930 hc         1 NX0       0.057700
     19 H25          5.6490     9.4730    43.5030 hc         1 NX0       0.057700
     20 H19          7.5040    10.6520    42.5370 h1         1 NX0       0.068700
     21 H21          9.6930    11.8480    42.7340 h1         1 NX0       0.065700
     22 H20          9.8130    10.3660    41.7570 h1         1 NX0       0.065700
     23 H22         12.6960     6.7770    45.3930 h4         1 NX0       0.024100
     24 H23         10.6570     5.3360    45.3310 ha         1 NX0       0.129000
     25 H24          8.5250     6.2580    44.4430 ha         1 NX0       0.138000
     26 H18          8.0270    10.7520    44.2310 h1         1 NX0       0.068700
@<TRIPOS>BOND
     1     1     2 1   
     2     1    15 1   
     3     1    16 1   
     4     1    17 1   
     5     2     3 1   
     6     2    18 1   
     7     2    19 1   
     8     3    10 2   
     9     3    11 1   
    10     4     5 1   
    11     4    11 1   
    12     4    20 1   
    13     4    26 1   
    14     5    12 1   
    15     5    21 1   
    16     5    22 1   
    17     6     7 ar  
    18     6    14 ar  
    19     6    23 1   
    20     7     8 ar  
    21     7    24 1   
    22     8     9 ar  
    23     8    25 1   
    24     9    11 1   
    25     9    13 ar  
    26    12    13 1   
    27    13    14 ar  
@<TRIPOS>SUBSTRUCTURE
     1 NX0         1 TEMP              0 ****  ****    0 ROOT
