@<TRIPOS>MOLECULE
NX1
   25    26     1     0     0
SMALL
No Charge or Current Charge


@<TRIPOS>ATOM
      1 C1          -3.2980    -0.1410     0.5470 cc         1 NX1      -0.170000
      2 C2          -4.4310     0.1360    -0.2100 cd         1 NX1      -0.202600
      3 S3          -1.6880     0.0060    -0.1760 ss         1 NX1      -0.023000
      4 C4          -3.5720    -0.6280     1.8510 cc         1 NX1      -0.145000
      5 S5          -5.8890    -0.1680     0.7590 ss         1 NX1       0.232000
      6 C6          -4.5570     0.6180    -1.6260 c          1 NX1       0.729600
      7 C7          -0.6040    -0.9390     0.9790 c3         1 NX1       0.024900
      8 C8          -4.9070    -0.7030     2.1350 cd         1 NX1      -0.307000
      9 O9          -5.6880     0.7790    -2.0640 o          1 NX1      -0.699500
     10 O10         -3.5690     0.8460    -2.3080 o          1 NX1      -0.699500
     11 C11          0.8200    -0.9980     0.4520 ca         1 NX1      -0.039300
     12 C12          1.7360     0.0250     0.7680 ca         1 NX1      -0.069000
     13 C13          1.2320    -2.0710    -0.3610 ca         1 NX1      -0.081000
     14 C14          3.0530    -0.0250     0.2780 ca         1 NX1      -0.017900
     15 C15          2.5490    -2.1230    -0.8520 ca         1 NX1      -0.106000
     16 C16          3.4610    -1.1030    -0.5350 ca         1 NX1       0.126000
     17 Br17         4.2660     1.3900     0.7340 br         1 NX1      -0.090100
     18 Cl18         5.1050    -1.1980    -1.1660 cl         1 NX1      -0.197000
     19 H4          -2.7990    -0.9120     2.5570 ha         1 NX1       0.104000
     20 H7          -0.6160    -0.4500     1.9610 h1         1 NX1       0.060700
     21 H7A         -1.0050    -1.9540     1.0910 h1         1 NX1       0.060700
     22 H8          -5.3820    -1.0350     3.0500 h4         1 NX1       0.121000
     23 H12          1.4250     0.8590     1.3920 ha         1 NX1       0.137000
     24 H13          0.5320    -2.8640    -0.6150 ha         1 NX1       0.127000
     25 H15          2.8620    -2.9540    -1.4790 ha         1 NX1       0.124000
@<TRIPOS>BOND
     1     1     2 2   
     2     1     3 1   
     3     1     4 1   
     4     2     5 1   
     5     2     6 1   
     6     3     7 1   
     7     4     8 2   
     8     4    19 1   
     9     5     8 1   
    10     6     9 1   
    11     6    10 1   
    12     7    11 1   
    13     7    20 1   
    14     7    21 1   
    15     8    22 1   
    16    11    12 ar  
    17    11    13 ar  
    18    12    14 ar  
    19    12    23 1   
    20    13    15 ar  
    21    13    24 1   
    22    14    16 ar  
    23    14    17 1   
    24    15    16 ar  
    25    15    25 1   
    26    16    18 1   
@<TRIPOS>SUBSTRUCTURE
     1 NX1         1 TEMP              0 ****  ****    0 ROOT
