@<TRIPOS>MOLECULE
NX1
   25    26     1     0     0
SMALL
abcg2


@<TRIPOS>ATOM
      1 C1          -3.2340    -0.2850     0.4580 cc         1 NX1      -0.170000
      2 C2          -4.3510     0.1640    -0.1970 cd         1 NX1      -0.202600
      3 S3          -1.6380    -0.2160    -0.2740 ss         1 NX1      -0.023000
      4 C4          -3.5340    -0.7980     1.7560 cc         1 NX1      -0.145000
      5 S5          -5.7620    -0.0390     0.7650 ss         1 NX1       0.232000
      6 C6          -4.4630     0.7650    -1.5590 c          1 NX1       0.729600
      7 C7          -0.6100    -0.9700     1.0330 c3         1 NX1       0.024900
      8 C8          -4.8640    -0.7250     2.0460 cd         1 NX1      -0.307000
      9 O9          -5.6070     1.0890    -1.9280 o          1 NX1      -0.699500
     10 O10         -3.3890     0.8790    -2.1830 o          1 NX1      -0.699500
     11 C11          0.7880    -1.0170     0.4990 ca         1 NX1      -0.039300
     12 C12          1.6490     0.0550     0.7020 ca         1 NX1      -0.069000
     13 C13          1.2320    -2.1060    -0.2440 ca         1 NX1      -0.081000
     14 C14          2.9370     0.0340     0.1850 ca         1 NX1      -0.017900
     15 C15          2.5150    -2.1330    -0.7620 ca         1 NX1      -0.106000
     16 C16          3.3730    -1.0630    -0.5490 ca         1 NX1       0.126000
     17 BR17         4.0690     1.5000     0.4940 br         1 NX1      -0.090100
     18 CL18         4.9660    -1.1270    -1.2040 cl         1 NX1      -0.197000
     19 H4          -2.8070    -1.2010     2.4450 ha         1 NX1       0.104000
     20 H7          -0.6560    -0.3710     1.9430 h1         1 NX1       0.060700
     21 H7A         -0.9680    -1.9750     1.2580 h1         1 NX1       0.060700
     22 H8          -5.3470    -1.0460     2.9560 h4         1 NX1       0.121000
     23 H12          1.3110     0.9110     1.2730 ha         1 NX1       0.137000
     24 H13          0.5720    -2.9460    -0.4200 ha         1 NX1       0.127000
     25 H15          2.8540    -2.9860    -1.3330 ha         1 NX1       0.124000
@<TRIPOS>BOND
     1     1     2 2   
     2     1     3 1   
     3     1     4 1   
     4     2     5 1   
     5     2     6 1   
     6     3     7 1   
     7     4     8 2   
     8     4    19 1   
     9     5     8 1   
    10     6     9 1   
    11     6    10 1   
    12     7    11 1   
    13     7    20 1   
    14     7    21 1   
    15     8    22 1   
    16    11    12 ar  
    17    11    13 ar  
    18    12    14 ar  
    19    12    23 1   
    20    13    15 ar  
    21    13    24 1   
    22    14    16 ar  
    23    14    17 1   
    24    15    16 ar  
    25    15    25 1   
    26    16    18 1   
@<TRIPOS>SUBSTRUCTURE
     1 NX1         1 TEMP              0 ****  ****    0 ROOT
