@<TRIPOS>MOLECULE
NX2
   33    34     1     0     0
SMALL
No Charge or Current Charge


@<TRIPOS>ATOM
      1 C1          -1.2670     1.6670    -0.2600 cc         1 NX2      -0.068000
      2 C2          -1.2520     3.0860    -0.2590 cc         1 NX2      -0.156000
      3 C3          -2.4980     3.6460    -0.1970 cd         1 NX2      -0.209000
      4 S4          -3.7560     2.4030    -0.1290 ss         1 NX2       0.257000
      5 C5          -2.5320     1.1090    -0.1580 cd         1 NX2      -0.318600
      6 S6           0.1620     0.6230    -0.2420 ss         1 NX2      -0.011000
      7 C7           1.5310     1.7710     0.2140 c3         1 NX2       0.058900
      8 C8           2.8340     1.0060     0.3900 ca         1 NX2      -0.073300
      9 C9           3.6820     0.7850    -0.7130 ca         1 NX2      -0.080000
     10 C10          4.4010    -0.2050     1.8160 ca         1 NX2      -0.096000
     11 C11          3.1990     0.5070     1.6550 ca         1 NX2      -0.086000
     12 C12          4.8840     0.0730    -0.5550 ca         1 NX2       0.118000
     13 C13          5.2460    -0.4230     0.7150 ca         1 NX2       0.124000
     14 Cl14         6.7470    -1.3200     0.9500 cl         1 NX2      -0.167000
     15 Cl15         5.9180    -0.1830    -1.9610 cl         1 NX2      -0.166000
     16 C16         -2.8970    -0.3380    -0.0790 c          1 NX2       0.673700
     17 N17         -4.2360    -0.5300     0.0320 ns         1 NX2      -0.586300
     18 O18         -2.1100    -1.2680    -0.0930 o          1 NX2      -0.549100
     19 S19         -5.0650    -1.9760     0.0360 s6         1 NX2       1.222800
     20 C20         -4.7340    -2.6310     1.6630 c3         1 NX2      -0.362100
     21 O21         -6.4920    -1.6510    -0.0430 o          1 NX2      -0.521500
     22 O22         -4.4580    -2.8730    -0.9530 o          1 NX2      -0.521500
     23 H2          -0.3400     3.6730    -0.3060 ha         1 NX2       0.141000
     24 H3          -2.7670     4.6950    -0.1850 h4         1 NX2       0.157000
     25 H7           1.6450     2.5230    -0.5760 h1         1 NX2       0.074200
     26 H7A          1.2680     2.2840     1.1470 h1         1 NX2       0.074200
     27 H9           3.4090     1.1620    -1.6960 ha         1 NX2       0.137000
     28 H10          4.6780    -0.5880     2.7950 ha         1 NX2       0.135000
     29 H11          2.5500     0.6680     2.5140 ha         1 NX2       0.125000
     30 HN17        -4.8580     0.2570     0.0420 hn         1 NX2       0.344500
     31 H20         -5.0970    -1.9000     2.3930 h1         1 NX2       0.110367
     32 H20A        -5.2710    -3.5810     1.7480 h1         1 NX2       0.110367
     33 H20B        -3.6520    -2.7760     1.7460 h1         1 NX2       0.110367
@<TRIPOS>BOND
     1     1     2 1   
     2     1     5 2   
     3     1     6 1   
     4     2     3 2   
     5     2    23 1   
     6     3     4 1   
     7     3    24 1   
     8     4     5 1   
     9     5    16 1   
    10     6     7 1   
    11     7     8 1   
    12     7    25 1   
    13     7    26 1   
    14     8     9 ar  
    15     8    11 ar  
    16     9    12 ar  
    17     9    27 1   
    18    10    11 ar  
    19    10    13 ar  
    20    10    28 1   
    21    11    29 1   
    22    12    13 ar  
    23    12    15 1   
    24    13    14 1   
    25    16    17 1   
    26    16    18 2   
    27    17    19 1   
    28    17    30 1   
    29    19    20 1   
    30    19    21 2   
    31    19    22 2   
    32    20    31 1   
    33    20    32 1   
    34    20    33 1   
@<TRIPOS>SUBSTRUCTURE
     1 NX2         1 TEMP              0 ****  ****    0 ROOT
