@<TRIPOS>MOLECULE
NX2
   33    34     1     0     0
SMALL
abcg2


@<TRIPOS>ATOM
      1 C1          -1.2590     1.7050    -0.0310 cc         1 NX2      -0.068000
      2 C2          -1.1980     3.1220    -0.1280 cc         1 NX2      -0.156000
      3 C3          -2.4280     3.6920    -0.2520 cd         1 NX2      -0.209000
      4 S4          -3.6830     2.5470    -0.2610 ss         1 NX2       0.257000
      5 C5          -2.5620     1.2450    -0.0800 cd         1 NX2      -0.318600
      6 S6           0.1190     0.6470     0.1290 ss         1 NX2      -0.011000
      7 C7           1.4980     1.8400     0.2180 c3         1 NX2       0.058900
      8 C8           2.7450     1.0310     0.4020 ca         1 NX2      -0.073300
      9 C9           3.4430     0.5680    -0.7070 ca         1 NX2      -0.080000
     10 C10          4.3420    -0.0660     1.8380 ca         1 NX2      -0.096000
     11 C11          3.1990     0.6990     1.6740 ca         1 NX2      -0.086000
     12 C12          4.5860    -0.2000    -0.5470 ca         1 NX2       0.118000
     13 C13          5.0400    -0.5180     0.7280 ca         1 NX2       0.124000
     14 CL14         6.4600    -1.4650     0.9450 cl         1 NX2      -0.167000
     15 CL15         5.4320    -0.7520    -1.9420 cl         1 NX2      -0.166000
     16 C16         -2.9400    -0.1550    -0.0090 c          1 NX2       0.673700
     17 N17         -4.2870    -0.4340     0.0630 ns         1 NX2      -0.586300
     18 O18         -2.1050    -1.0400    -0.0060 o          1 NX2      -0.549100
     19 S19         -4.9180    -1.9910    -0.0310 s6         1 NX2       1.222800
     20 C20         -4.4140    -2.7640     1.4800 c3         1 NX2      -0.362100
     21 O21         -6.3540    -1.7880    -0.0120 o          1 NX2      -0.521500
     22 O22         -4.3040    -2.6730    -1.1510 o          1 NX2      -0.521500
     23 H2          -0.2910     3.7060    -0.1120 ha         1 NX2       0.141000
     24 H3          -2.6520     4.7440    -0.3470 h4         1 NX2       0.157000
     25 H7           1.5450     2.4200    -0.7030 h1         1 NX2       0.074200
     26 H7A          1.3480     2.5200     1.0560 h1         1 NX2       0.074200
     27 H9           3.1000     0.8090    -1.7040 ha         1 NX2       0.137000
     28 H10          4.6950    -0.3120     2.8300 ha         1 NX2       0.135000
     29 H11          2.6640     1.0440     2.5500 ha         1 NX2       0.125000
     30 HN17        -4.9760     0.2860     0.2450 hn         1 NX2       0.344500
     31 H20         -4.8210    -2.2010     2.3160 h1         1 NX2       0.110367
     32 H20A        -4.8210    -3.7740     1.4720 h1         1 NX2       0.110367
     33 H20B        -3.3290    -2.8010     1.5270 h1         1 NX2       0.110367
@<TRIPOS>BOND
     1     1     2 1   
     2     1     5 2   
     3     1     6 1   
     4     2     3 2   
     5     2    23 1   
     6     3     4 1   
     7     3    24 1   
     8     4     5 1   
     9     5    16 1   
    10     6     7 1   
    11     7     8 1   
    12     7    25 1   
    13     7    26 1   
    14     8     9 ar  
    15     8    11 ar  
    16     9    12 ar  
    17     9    27 1   
    18    10    11 ar  
    19    10    13 ar  
    20    10    28 1   
    21    11    29 1   
    22    12    13 ar  
    23    12    15 1   
    24    13    14 1   
    25    16    17 1   
    26    16    18 2   
    27    17    19 1   
    28    17    30 1   
    29    19    20 1   
    30    19    21 2   
    31    19    22 2   
    32    20    31 1   
    33    20    32 1   
    34    20    33 1   
@<TRIPOS>SUBSTRUCTURE
     1 NX2         1 TEMP              0 ****  ****    0 ROOT
