@<TRIPOS>MOLECULE
NX3
   42    44     1     0     0
SMALL
No Charge or Current Charge


@<TRIPOS>ATOM
      1 S1           2.5950    -3.4960     0.8160 ss         1 NX3       0.253000
      2 C2           1.5910    -2.2760     0.0240 cc         1 NX3      -0.311600
      3 C3           0.2530    -2.5940     0.1890 cd         1 NX3      -0.072000
      4 C4           0.0220    -3.7540     0.9790 cd         1 NX3      -0.155000
      5 C5           1.1770    -4.3630     1.3940 cc         1 NX3      -0.211000
      6 C6           2.1750    -1.1110    -0.6950 c          1 NX3       0.674700
      7 N7           3.5310    -1.0900    -0.6540 ns         1 NX3      -0.581300
      8 O8           1.5350    -0.2460    -1.2690 o          1 NX3      -0.544100
      9 S9           4.5500     0.0650    -1.3040 sy         1 NX3       1.181300
     10 S10         -1.0260    -1.5260    -0.4300 ss         1 NX3      -0.011000
     11 C11         -2.5330    -2.0160     0.5140 c3         1 NX3       0.056900
     12 C12         -3.7000    -1.1030     0.1700 ca         1 NX3      -0.071300
     13 C13         -4.6040    -1.4570    -0.8500 ca         1 NX3      -0.084000
     14 C14         -5.6790    -0.6090    -1.1700 ca         1 NX3      -0.095000
     15 C15         -5.8550     0.6000    -0.4750 ca         1 NX3       0.123000
     16 C16         -4.9510     0.9610     0.5450 ca         1 NX3       0.117000
     17 C17         -3.8780     0.1100     0.8640 ca         1 NX3      -0.081000
     18 Cl18        -5.1390     2.4720     1.4370 cl         1 NX3      -0.169000
     19 Cl19        -7.2130     1.6430    -0.9010 cl         1 NX3      -0.168000
     20 O20          5.8950    -0.3480    -0.8900 o          1 NX3      -0.528500
     21 O21          4.1900     0.1860    -2.7220 o          1 NX3      -0.528500
     22 C22          4.1200     1.6040    -0.4550 ca         1 NX3      -0.246500
     23 C23          3.2250     2.5210    -1.0470 ca         1 NX3      -0.036000
     24 C24          2.8900     3.7100    -0.3760 ca         1 NX3      -0.088000
     25 C25          3.4430     3.9900     0.8860 ca         1 NX3      -0.125000
     26 C26          4.3330     3.0840     1.4850 ca         1 NX3       0.282000
     27 C27          4.6690     1.8930     0.8170 ca         1 NX3      -0.100000
     28 N28          4.8700     3.3620     2.7170 nv         1 NX3      -1.083000
     29 H4          -0.9610    -4.1350     1.2350 ha         1 NX3       0.139000
     30 H5           1.3060    -5.2530     1.9960 h4         1 NX3       0.155000
     31 HN7          4.0370    -1.7960    -0.1530 hn         1 NX3       0.342500
     32 H11         -2.7860    -3.0550     0.2680 h1         1 NX3       0.073700
     33 H11A        -2.3140    -1.9560     1.5870 h1         1 NX3       0.073700
     34 H13         -4.4750    -2.3900    -1.3960 ha         1 NX3       0.127000
     35 H14         -6.3750    -0.8870    -1.9580 ha         1 NX3       0.135000
     36 H17         -3.1830     0.3970     1.6500 ha         1 NX3       0.135000
     37 H23          2.7820     2.3160    -2.0210 ha         1 NX3       0.151000
     38 H24          2.1980     4.4140    -0.8350 ha         1 NX3       0.119000
     39 H25          3.1770     4.9120     1.3960 ha         1 NX3       0.115000
     40 H27          5.3550     1.1930     1.2870 ha         1 NX3       0.124000
     41 HN28         4.7330     4.2800     3.1370 hn         1 NX3       0.455500
     42 HN2A         5.6170     2.7800     3.0940 hn         1 NX3       0.455500
@<TRIPOS>BOND
     1     1     2 1   
     2     1     5 1   
     3     2     3 2   
     4     2     6 1   
     5     3     4 1   
     6     3    10 1   
     7     4     5 2   
     8     4    29 1   
     9     5    30 1   
    10     6     7 1   
    11     6     8 2   
    12     7     9 1   
    13     7    31 1   
    14     9    20 2   
    15     9    21 2   
    16     9    22 1   
    17    10    11 1   
    18    11    12 1   
    19    11    32 1   
    20    11    33 1   
    21    12    13 ar  
    22    12    17 ar  
    23    13    14 ar  
    24    13    34 1   
    25    14    15 ar  
    26    14    35 1   
    27    15    16 ar  
    28    15    19 1   
    29    16    17 ar  
    30    16    18 1   
    31    17    36 1   
    32    22    23 ar  
    33    22    27 ar  
    34    23    24 ar  
    35    23    37 1   
    36    24    25 ar  
    37    24    38 1   
    38    25    26 ar  
    39    25    39 1   
    40    26    27 ar  
    41    26    28 1   
    42    27    40 1   
    43    28    41 1   
    44    28    42 1   
@<TRIPOS>SUBSTRUCTURE
     1 NX3         1 TEMP              0 ****  ****    0 ROOT
