@<TRIPOS>MOLECULE
NX3
   42    44     1     0     0
SMALL
abcg2


@<TRIPOS>ATOM
      1 S1           2.5210    -3.5960     0.8330 ss         1 NX3       0.253000
      2 C2           1.5990    -2.2910     0.1780 cc         1 NX3      -0.311600
      3 C3           0.2470    -2.4610     0.4130 cd         1 NX3      -0.072000
      4 C4          -0.0140    -3.6550     1.1400 cd         1 NX3      -0.155000
      5 C5           1.1190    -4.3510     1.4290 cc         1 NX3      -0.211000
      6 C6           2.1710    -1.1620    -0.5360 c          1 NX3       0.674700
      7 N7           3.5460    -1.0820    -0.5730 ns         1 NX3      -0.581300
      8 O8           1.4720    -0.3240    -1.0700 o          1 NX3      -0.544100
      9 S9           4.3740     0.1310    -1.3890 sy         1 NX3       1.181300
     10 S10         -0.9650    -1.3290    -0.1300 ss         1 NX3      -0.011000
     11 C11         -2.4870    -2.0340     0.5890 c3         1 NX3       0.056900
     12 C12         -3.6010    -1.1110     0.2000 ca         1 NX3      -0.071300
     13 C13         -4.2780    -1.2820    -1.0030 ca         1 NX3      -0.084000
     14 C14         -5.2880    -0.4110    -1.3740 ca         1 NX3      -0.095000
     15 C15         -5.6290     0.6490    -0.5480 ca         1 NX3       0.123000
     16 C16         -4.9510     0.8320     0.6530 ca         1 NX3       0.117000
     17 C17         -3.9400    -0.0430     1.0200 ca         1 NX3      -0.081000
     18 CL18        -5.3560     2.1410     1.6960 cl         1 NX3      -0.169000
     19 CL19        -6.8880     1.7230    -1.0190 cl         1 NX3      -0.168000
     20 O20          5.7660    -0.1900    -1.1370 o          1 NX3      -0.528500
     21 O21          3.8830     0.2000    -2.7480 o          1 NX3      -0.528500
     22 C22          3.9510     1.6130    -0.5280 ca         1 NX3      -0.246500
     23 C23          3.0710     2.5110    -1.1090 ca         1 NX3      -0.036000
     24 C24          2.7910     3.6740    -0.4030 ca         1 NX3      -0.088000
     25 C25          3.3630     3.9180     0.8320 ca         1 NX3      -0.125000
     26 C26          4.2500     2.9990     1.4140 ca         1 NX3       0.282000
     27 C27          4.5480     1.8330     0.7040 ca         1 NX3      -0.100000
     28 N28          4.7750     3.2200     2.6610 nv         1 NX3      -1.083000
     29 H4          -0.9930    -3.9940     1.4380 ha         1 NX3       0.139000
     30 H5           1.1930    -5.2860     1.9620 h4         1 NX3       0.155000
     31 HN7          4.1360    -1.6930    -0.0210 hn         1 NX3       0.342500
     32 H11         -2.6600    -3.0350     0.1930 h1         1 NX3       0.073700
     33 H11A        -2.3900    -2.0940     1.6730 h1         1 NX3       0.073700
     34 H13         -4.0220    -2.1040    -1.6590 ha         1 NX3       0.127000
     35 H14         -5.8140    -0.5530    -2.3080 ha         1 NX3       0.135000
     36 H17         -3.4220     0.1090     1.9580 ha         1 NX3       0.135000
     37 H23          2.6180     2.3220    -2.0710 ha         1 NX3       0.151000
     38 H24          2.1130     4.4040    -0.8260 ha         1 NX3       0.119000
     39 H25          3.1250     4.8340     1.3600 ha         1 NX3       0.115000
     40 H27          5.2410     1.1150     1.1260 ha         1 NX3       0.124000
     41 HN28         4.8150     4.1780     2.9670 hn         1 NX3       0.455500
     42 HN2A         5.6060     2.7040     2.8980 hn         1 NX3       0.455500
@<TRIPOS>BOND
     1     1     2 1   
     2     1     5 1   
     3     2     3 2   
     4     2     6 1   
     5     3     4 1   
     6     3    10 1   
     7     4     5 2   
     8     4    29 1   
     9     5    30 1   
    10     6     7 1   
    11     6     8 2   
    12     7     9 1   
    13     7    31 1   
    14     9    20 2   
    15     9    21 2   
    16     9    22 1   
    17    10    11 1   
    18    11    12 1   
    19    11    32 1   
    20    11    33 1   
    21    12    13 ar  
    22    12    17 ar  
    23    13    14 ar  
    24    13    34 1   
    25    14    15 ar  
    26    14    35 1   
    27    15    16 ar  
    28    15    19 1   
    29    16    17 ar  
    30    16    18 1   
    31    17    36 1   
    32    22    23 ar  
    33    22    27 ar  
    34    23    24 ar  
    35    23    37 1   
    36    24    25 ar  
    37    24    38 1   
    38    25    26 ar  
    39    25    39 1   
    40    26    27 ar  
    41    26    28 1   
    42    27    40 1   
    43    28    41 1   
    44    28    42 1   
@<TRIPOS>SUBSTRUCTURE
     1 NX3         1 TEMP              0 ****  ****    0 ROOT
