@<TRIPOS>MOLECULE
NX4
   46    48     1     0     0
SMALL
No Charge or Current Charge


@<TRIPOS>ATOM
      1 C1           0.2200     3.1870     0.3440 cc         1 NX4      -0.089000
      2 C2          -1.8210     1.9280    -0.6390 c          1 NX4       0.661700
      3 N3          -3.1740     2.0440    -0.6080 ns         1 NX4      -0.580300
      4 S4           1.3710     2.0150    -0.3170 ss         1 NX4       0.028000
      5 C5           2.8870     2.2830     0.6960 c3         1 NX4       0.044900
      6 C6           3.9560     1.2610     0.3420 ca         1 NX4      -0.065300
      7 C7           4.9190     1.5520    -0.6430 ca         1 NX4      -0.087000
      8 C8           5.9040     0.6040    -0.9730 ca         1 NX4      -0.097000
      9 C9           5.9310    -0.6420    -0.3220 ca         1 NX4       0.124000
     10 C10          4.9670    -0.9390     0.6640 ca         1 NX4       0.123000
     11 C11          3.9840     0.0110     0.9920 ca         1 NX4      -0.077000
     12 Cl12         7.1790    -1.8100    -0.7590 cl         1 NX4      -0.178000
     13 Cl13         4.9690    -2.4920     1.5000 cl         1 NX4      -0.170000
     14 O14         -1.2590     1.0320    -1.2470 o          1 NX4      -0.520100
     15 S15         -4.2960     1.0270    -1.3130 sy         1 NX4       1.189300
     16 O16         -5.5990     1.5660    -0.9090 o          1 NX4      -0.549500
     17 O17         -3.9220     0.9050    -2.7260 o          1 NX4      -0.549500
     18 C18         -1.1400     3.0040     0.1440 cd         1 NX4      -0.288600
     19 C19          0.5460     4.2770     1.1910 cc         1 NX4      -0.153000
     20 C20         -0.5460     4.9760     1.6250 cd         1 NX4      -0.229000
     21 S21         -2.0460     4.2840     0.9890 ss         1 NX4       0.237000
     22 C22         -4.0460    -0.5630    -0.5060 ca         1 NX4      -0.359500
     23 C23         -4.6540    -0.8280     0.7340 ca         1 NX4      -0.008000
     24 C24         -4.4520    -2.0680     1.3590 ca         1 NX4      -0.257000
     25 C25         -3.6360    -3.0520     0.7580 ca         1 NX4       0.215100
     26 C26         -3.0170    -2.7780    -0.4770 ca         1 NX4      -0.179600
     27 C27         -3.2280    -1.5380    -1.1090 ca         1 NX4       0.054000
     28 O28         -3.4460    -4.2920     1.3400 os         1 NX4      -0.282100
     29 C29         -4.0430    -4.6540     2.5960 c3         1 NX4       0.147900
     30 C30         -2.1390    -3.7910    -1.1420 c          1 NX4       0.725600
     31 O31         -2.3890    -4.0810    -2.3030 o          1 NX4      -0.704000
     32 O32         -1.1600    -4.2030    -0.5380 o          1 NX4      -0.704000
     33 HN3         -3.6100     2.7730    -0.0770 hn         1 NX4       0.329500
     34 H5           3.2650     3.2970     0.5120 h1         1 NX4       0.067200
     35 H5A          2.6230     2.1970     1.7580 h1         1 NX4       0.067200
     36 H7           4.9050     2.5120    -1.1540 ha         1 NX4       0.123000
     37 H8           6.6460     0.8330    -1.7330 ha         1 NX4       0.130000
     38 H11          3.2430    -0.2260     1.7510 ha         1 NX4       0.137000
     39 H19          1.5640     4.5330     1.4670 ha         1 NX4       0.132000
     40 H20         -0.5760     5.8450     2.2720 h4         1 NX4       0.145000
     41 H23         -5.2840    -0.0820     1.2150 ha         1 NX4       0.101000
     42 H24         -4.9430    -2.2470     2.3110 ha         1 NX4       0.097000
     43 H27         -2.7430    -1.3380    -2.0650 ha         1 NX4       0.163000
     44 H29         -3.7060    -3.9810     3.3950 h1         1 NX4       0.028367
     45 H29A        -5.1370    -4.6100     2.5340 h1         1 NX4       0.028367
     46 H29B        -3.7580    -5.6770     2.8690 h1         1 NX4       0.028367
@<TRIPOS>BOND
     1     1     4 1   
     2     1    18 2   
     3     1    19 1   
     4     2     3 1   
     5     2    14 2   
     6     2    18 1   
     7     3    15 1   
     8     3    33 1   
     9     4     5 1   
    10     5     6 1   
    11     5    34 1   
    12     5    35 1   
    13     6     7 ar  
    14     6    11 ar  
    15     7     8 ar  
    16     7    36 1   
    17     8     9 ar  
    18     8    37 1   
    19     9    10 ar  
    20     9    12 1   
    21    10    11 ar  
    22    10    13 1   
    23    11    38 1   
    24    15    16 2   
    25    15    17 2   
    26    15    22 1   
    27    18    21 1   
    28    19    20 2   
    29    19    39 1   
    30    20    21 1   
    31    20    40 1   
    32    22    23 ar  
    33    22    27 ar  
    34    23    24 ar  
    35    23    41 1   
    36    24    25 ar  
    37    24    42 1   
    38    25    26 ar  
    39    25    28 1   
    40    26    27 ar  
    41    26    30 1   
    42    27    43 1   
    43    28    29 1   
    44    29    44 1   
    45    29    45 1   
    46    29    46 1   
    47    30    31 1   
    48    30    32 1   
@<TRIPOS>SUBSTRUCTURE
     1 NX4         1 TEMP              0 ****  ****    0 ROOT
