@<TRIPOS>MOLECULE
NX4
   46    48     1     0     0
SMALL
abcg2


@<TRIPOS>ATOM
      1 C1           0.1930     2.9360     0.6450 cc         1 NX4      -0.089000
      2 C2          -1.8250     1.9130    -0.4370 c          1 NX4       0.661700
      3 N3          -3.1880     2.0230    -0.5810 ns         1 NX4      -0.580300
      4 S4           1.2960     1.7130     0.0670 ss         1 NX4       0.028000
      5 C5           2.8800     2.2790     0.7770 c3         1 NX4       0.044900
      6 C6           3.9190     1.2920     0.3380 ca         1 NX4      -0.065300
      7 C7           4.5740     1.4470    -0.8790 ca         1 NX4      -0.087000
      8 C8           5.5190     0.5240    -1.2930 ca         1 NX4      -0.097000
      9 C9           5.8150    -0.5720    -0.4960 ca         1 NX4       0.124000
     10 C10          5.1570    -0.7390     0.7170 ca         1 NX4       0.123000
     11 C11          4.2110     0.1880     1.1280 ca         1 NX4      -0.077000
     12 CL12         6.9960    -1.7090    -1.0200 cl         1 NX4      -0.178000
     13 CL13         5.5050    -2.0920     1.7230 cl         1 NX4      -0.170000
     14 O14         -1.2040     1.0020    -0.9510 o          1 NX4      -0.520100
     15 S15         -4.1130     0.9210    -1.4580 sy         1 NX4       1.189300
     16 O16         -5.4650     1.4170    -1.2710 o          1 NX4      -0.549500
     17 O17         -3.5650     0.8100    -2.7930 o          1 NX4      -0.549500
     18 C18         -1.1610     2.9280     0.3640 cd         1 NX4      -0.288600
     19 C19          0.5560     4.0500     1.4530 cc         1 NX4      -0.153000
     20 C20         -0.5050     4.8470     1.7540 cd         1 NX4      -0.229000
     21 S21         -1.9590     4.2820     1.0800 ss         1 NX4       0.237000
     22 C22         -3.9210    -0.5970    -0.6090 ca         1 NX4      -0.359500
     23 C23         -4.6150    -0.7930     0.5770 ca         1 NX4      -0.008000
     24 C24         -4.4750    -1.9920     1.2470 ca         1 NX4      -0.257000
     25 C25         -3.6350    -2.9950     0.7460 ca         1 NX4       0.215100
     26 C26         -2.9290    -2.7930    -0.4560 ca         1 NX4      -0.179600
     27 C27         -3.1030    -1.5940    -1.1250 ca         1 NX4       0.054000
     28 O28         -3.4970    -4.1770     1.3480 os         1 NX4      -0.282100
     29 C29         -4.2220    -4.4400     2.5350 c3         1 NX4       0.147900
     30 C30         -1.9640    -3.8140    -1.0560 c          1 NX4       0.725600
     31 O31         -1.9450    -3.8620    -2.3000 o          1 NX4      -0.704000
     32 O32         -1.2670    -4.4660    -0.2640 o          1 NX4      -0.704000
     33 HN3         -3.7300     2.7250    -0.0910 hn         1 NX4       0.329500
     34 H5           3.1160     3.2770     0.4080 h1         1 NX4       0.067200
     35 H5A          2.8080     2.3130     1.8630 h1         1 NX4       0.067200
     36 H7           4.3550     2.2980    -1.5110 ha         1 NX4       0.123000
     37 H8           6.0290     0.6540    -2.2380 ha         1 NX4       0.130000
     38 H11          3.7080     0.0480     2.0760 ha         1 NX4       0.137000
     39 H19          1.5540     4.2610     1.8020 ha         1 NX4       0.132000
     40 H20         -0.4960     5.7490     2.3460 h4         1 NX4       0.145000
     41 H23         -5.2670    -0.0330     0.9860 ha         1 NX4       0.101000
     42 H24         -5.0340    -2.1340     2.1600 ha         1 NX4       0.097000
     43 H27         -2.5840    -1.4430    -2.0610 ha         1 NX4       0.163000
     44 H29         -3.9480    -3.7550     3.3410 h1         1 NX4       0.028367
     45 H29A        -5.3020    -4.3870     2.3760 h1         1 NX4       0.028367
     46 H29B        -3.9610    -5.4520     2.8330 h1         1 NX4       0.028367
@<TRIPOS>BOND
     1     1     4 1   
     2     1    18 2   
     3     1    19 1   
     4     2     3 1   
     5     2    14 2   
     6     2    18 1   
     7     3    15 1   
     8     3    33 1   
     9     4     5 1   
    10     5     6 1   
    11     5    34 1   
    12     5    35 1   
    13     6     7 ar  
    14     6    11 ar  
    15     7     8 ar  
    16     7    36 1   
    17     8     9 ar  
    18     8    37 1   
    19     9    10 ar  
    20     9    12 1   
    21    10    11 ar  
    22    10    13 1   
    23    11    38 1   
    24    15    16 2   
    25    15    17 2   
    26    15    22 1   
    27    18    21 1   
    28    19    20 2   
    29    19    39 1   
    30    20    21 1   
    31    20    40 1   
    32    22    23 ar  
    33    22    27 ar  
    34    23    24 ar  
    35    23    41 1   
    36    24    25 ar  
    37    24    42 1   
    38    25    26 ar  
    39    25    28 1   
    40    26    27 ar  
    41    26    30 1   
    42    27    43 1   
    43    28    29 1   
    44    29    44 1   
    45    29    45 1   
    46    29    46 1   
    47    30    31 1   
    48    30    32 1   
@<TRIPOS>SUBSTRUCTURE
     1 NX4         1 TEMP              0 ****  ****    0 ROOT
