@<TRIPOS>MOLECULE
NX5
   28    29     1     0     0
SMALL
No Charge or Current Charge


@<TRIPOS>ATOM
      1 C1          -2.9240     0.5630    -0.0050 ca         1 NX5      -0.080000
      2 S2          -1.2740    -0.1430     0.1910 ss         1 NX5      -0.008000
      3 C3          -0.1100     1.2860     0.2720 c3         1 NX5      -0.001100
      4 C4           1.3210     0.8020     0.4340 ca         1 NX5      -0.025300
      5 C5           2.1060     0.5170    -0.6990 ca         1 NX5      -0.090000
      6 C6           3.1930     0.1760     1.8690 ca         1 NX5      -0.099000
      7 C7           1.8700     0.6290     1.7190 ca         1 NX5      -0.093000
      8 C8           3.4290     0.0640    -0.5530 ca         1 NX5       0.122000
      9 C9           3.9750    -0.1060     0.7370 ca         1 NX5       0.105000
     10 Cl10         5.6320    -0.6730     0.9590 cl         1 NX5      -0.200000
     11 Cl11         4.3790    -0.2830    -1.9990 cl         1 NX5      -0.195000
     12 C12         -3.1310     1.9600    -0.0530 ca         1 NX5      -0.161000
     13 C13         -4.4260     2.4870    -0.1840 ca         1 NX5      -0.124000
     14 C14         -5.5300     1.6270    -0.2640 ca         1 NX5      -0.151000
     15 C15         -5.3390     0.2370    -0.2170 ca         1 NX5      -0.077000
     16 C16         -4.0420    -0.3050    -0.0940 ca         1 NX5      -0.126600
     17 C17         -3.8870    -1.8050    -0.0520 c          1 NX5       0.710600
     18 O18         -4.3350    -2.3980     0.9190 o          1 NX5      -0.699000
     19 O19         -3.4070    -2.3650    -1.0280 o          1 NX5      -0.699000
     20 H3          -0.2010     1.8730    -0.6500 h1         1 NX5       0.058700
     21 H3A         -0.3860     1.9230     1.1220 h1         1 NX5       0.058700
     22 H5           1.6910     0.6430    -1.6960 ha         1 NX5       0.136000
     23 H6           3.6120     0.0440     2.8640 ha         1 NX5       0.122000
     24 H7           1.2710     0.8430     2.6020 ha         1 NX5       0.126000
     25 H12         -2.3010     2.6560     0.0120 ha         1 NX5       0.087000
     26 H13         -4.5730     3.5640    -0.2200 ha         1 NX5       0.083000
     27 H14         -6.5330     2.0350    -0.3630 ha         1 NX5       0.090000
     28 H15         -6.1990    -0.4270    -0.2810 ha         1 NX5       0.131000
@<TRIPOS>BOND
     1     1     2 1   
     2     1    12 ar  
     3     1    16 ar  
     4     2     3 1   
     5     3     4 1   
     6     3    20 1   
     7     3    21 1   
     8     4     5 ar  
     9     4     7 ar  
    10     5     8 ar  
    11     5    22 1   
    12     6     7 ar  
    13     6     9 ar  
    14     6    23 1   
    15     7    24 1   
    16     8     9 ar  
    17     8    11 1   
    18     9    10 1   
    19    12    13 ar  
    20    12    25 1   
    21    13    14 ar  
    22    13    26 1   
    23    14    15 ar  
    24    14    27 1   
    25    15    16 ar  
    26    15    28 1   
    27    16    17 1   
    28    17    18 1   
    29    17    19 1   
@<TRIPOS>SUBSTRUCTURE
     1 NX5         1 TEMP              0 ****  ****    0 ROOT
