@<TRIPOS>MOLECULE
NX5
   28    29     1     0     0
SMALL
abcg2


@<TRIPOS>ATOM
      1 C1          -2.8320     0.5390    -0.0040 ca         1 NX5      -0.080000
      2 S2          -1.2000    -0.1390     0.1280 ss         1 NX5      -0.008000
      3 C3          -0.1580     1.3620     0.2350 c3         1 NX5      -0.001100
      4 C4           1.2450     0.8640     0.4000 ca         1 NX5      -0.025300
      5 C5           2.0190     0.5740    -0.7170 ca         1 NX5      -0.090000
      6 C6           3.0600     0.1340     1.8130 ca         1 NX5      -0.099000
      7 C7           1.7760     0.6300     1.6650 ca         1 NX5      -0.093000
      8 C8           3.3050     0.0770    -0.5750 ca         1 NX5       0.122000
      9 C9           3.8300    -0.1450     0.6930 ca         1 NX5       0.105000
     10 CL10         5.4260    -0.7610     0.8890 cl         1 NX5      -0.200000
     11 CL11         4.2400    -0.2590    -1.9830 cl         1 NX5      -0.195000
     12 C12         -3.0370     1.9200    -0.0700 ca         1 NX5      -0.161000
     13 C13         -4.3140     2.4510    -0.1680 ca         1 NX5      -0.124000
     14 C14         -5.4190     1.6150    -0.2020 ca         1 NX5      -0.151000
     15 C15         -5.2200     0.2460    -0.1370 ca         1 NX5      -0.077000
     16 C16         -3.9490    -0.3150    -0.0410 ca         1 NX5      -0.126600
     17 C17         -3.8210    -1.8260     0.0110 c          1 NX5       0.710600
     18 O18         -4.8700    -2.4940     0.0420 o          1 NX5      -0.699000
     19 O19         -2.6550    -2.2720     0.0150 o          1 NX5      -0.699000
     20 H3          -0.2440     1.9670    -0.6690 h1         1 NX5       0.058700
     21 H3A         -0.4470     1.9760     1.0900 h1         1 NX5       0.058700
     22 H5           1.6220     0.7420    -1.7100 ha         1 NX5       0.136000
     23 H6           3.4680    -0.0390     2.7990 ha         1 NX5       0.122000
     24 H7           1.1880     0.8420     2.5480 ha         1 NX5       0.126000
     25 H12         -2.2070     2.6100    -0.0510 ha         1 NX5       0.087000
     26 H13         -4.4350     3.5260    -0.2170 ha         1 NX5       0.083000
     27 H14         -6.4180     2.0220    -0.2780 ha         1 NX5       0.090000
     28 H15         -6.0690    -0.4230    -0.1620 ha         1 NX5       0.131000
@<TRIPOS>BOND
     1     1     2 1   
     2     1    12 ar  
     3     1    16 ar  
     4     2     3 1   
     5     3     4 1   
     6     3    20 1   
     7     3    21 1   
     8     4     5 ar  
     9     4     7 ar  
    10     5     8 ar  
    11     5    22 1   
    12     6     7 ar  
    13     6     9 ar  
    14     6    23 1   
    15     7    24 1   
    16     8     9 ar  
    17     8    11 1   
    18     9    10 1   
    19    12    13 ar  
    20    12    25 1   
    21    13    14 ar  
    22    13    26 1   
    23    14    15 ar  
    24    14    27 1   
    25    15    16 ar  
    26    15    28 1   
    27    16    17 1   
    28    17    18 1   
    29    17    19 1   
@<TRIPOS>SUBSTRUCTURE
     1 NX5         1 TEMP              0 ****  ****    0 ROOT
