@<TRIPOS>MOLECULE
NX6
   30    30     1     0     0
SMALL
No Charge or Current Charge


@<TRIPOS>ATOM
      1 C            3.1240     1.7270    -1.1590 c          1 NX6       0.708000
      2 N            1.1810     0.4270    -0.3060 ns         1 NX6      -0.402900
      3 O            2.8160     1.6500    -2.3420 o          1 NX6      -0.754500
      4 C1           0.3040     0.3170     0.7390 c          1 NX6       0.627100
      5 O1           0.5960     0.3990     1.9220 o          1 NX6      -0.581000
      6 C2          -2.0360     0.0860     1.1850 c3         1 NX6       0.228900
      7 O2          -0.9570     0.1840     0.2410 os         1 NX6      -0.476100
      8 C3          -3.3430    -0.0570     0.4150 ca         1 NX6      -0.063300
      9 C4          -3.8300    -1.3340     0.0700 ca         1 NX6      -0.087500
     10 C5          -5.0380    -1.4640    -0.6380 ca         1 NX6      -0.127000
     11 C6          -5.7660    -0.3210    -1.0050 ca         1 NX6      -0.127000
     12 C7          -5.2850     0.9550    -0.6660 ca         1 NX6      -0.127000
     13 C8          -4.0770     1.0870     0.0420 ca         1 NX6      -0.087500
     14 CA           2.6450     0.6050    -0.1850 c3         1 NX6      -0.011300
     15 CB           3.4230    -0.7260    -0.3950 c3         1 NX6      -0.200400
     16 CG           3.1180    -1.7430     0.7180 c          1 NX6       0.711000
     17 OD1          2.2330    -2.5630     0.5310 o          1 NX6      -0.765000
     18 OD2          3.7890    -1.6950     1.7380 o          1 NX6      -0.765000
     19 OXT          3.7170     2.6880    -0.6890 o          1 NX6      -0.754500
     20 HN           0.7750     0.3840    -1.2310 hn         1 NX6       0.306500
     21 H2          -1.9010    -0.7850     1.8400 h1         1 NX6       0.042700
     22 H2A         -2.0810     0.9820     1.8180 h1         1 NX6       0.042700
     23 H4          -3.2700    -2.2240     0.3490 ha         1 NX6       0.120500
     24 H5          -5.4080    -2.4520    -0.9020 ha         1 NX6       0.096500
     25 H6          -6.7000    -0.4220    -1.5530 ha         1 NX6       0.090000
     26 H7          -5.8470     1.8410    -0.9510 ha         1 NX6       0.096500
     27 H8          -3.7100     2.0780     0.2990 ha         1 NX6       0.120500
     28 HA           2.8640     0.9680     0.8280 h1         1 NX6       0.079700
     29 HB           3.1140    -1.1160    -1.3720 hc         1 NX6       0.029700
     30 HBA          4.4820    -0.4410    -0.3520 hc         1 NX6       0.029700
@<TRIPOS>BOND
     1     1     3 1   
     2     1    14 1   
     3     1    19 1   
     4     2     4 1   
     5     2    14 1   
     6     2    20 1   
     7     4     5 2   
     8     4     7 1   
     9     6     7 1   
    10     6     8 1   
    11     6    21 1   
    12     6    22 1   
    13     8     9 ar  
    14     8    13 ar  
    15     9    10 ar  
    16     9    23 1   
    17    10    11 ar  
    18    10    24 1   
    19    11    12 ar  
    20    11    25 1   
    21    12    13 ar  
    22    12    26 1   
    23    13    27 1   
    24    14    15 1   
    25    14    28 1   
    26    15    16 1   
    27    15    29 1   
    28    15    30 1   
    29    16    17 1   
    30    16    18 1   
@<TRIPOS>SUBSTRUCTURE
     1 NX6         1 TEMP              0 ****  ****    0 ROOT
