@<TRIPOS>MOLECULE
NX6
   30    30     1     0     0
SMALL
bcc


@<TRIPOS>ATOM
      1 C            2.8620     1.7710    -0.1250 c          1 NX6       0.918600
      2 N            1.1690    -0.0600    -0.0090 ns         1 NX6      -0.469900
      3 O            1.9760     2.4450    -0.6790 o          1 NX6      -0.859800
      4 C1           0.2280     0.4740     0.7820 c          1 NX6       0.743100
      5 O1           0.4320     1.0460     1.8360 o          1 NX6      -0.630000
      6 C2          -2.1040     0.7190     1.0730 c3         1 NX6       0.205700
      7 O2          -1.0030     0.2580     0.2870 os         1 NX6      -0.452900
      8 C3          -3.3540     0.2500     0.3910 ca         1 NX6      -0.063300
      9 C4          -3.8300    -1.0410     0.6060 ca         1 NX6      -0.105500
     10 C5          -4.9720    -1.4890    -0.0430 ca         1 NX6      -0.145000
     11 C6          -5.6510    -0.6480    -0.9170 ca         1 NX6      -0.145000
     12 C7          -5.1820     0.6400    -1.1380 ca         1 NX6      -0.145000
     13 C8          -4.0380     1.0840    -0.4880 ca         1 NX6      -0.105500
     14 CA           2.5650     0.2800     0.1680 c3         1 NX6      -0.011300
     15 CB           3.4050    -0.6250    -0.7250 c3         1 NX6      -0.200400
     16 CG           3.2860    -2.1230    -0.3840 c          1 NX6       0.921600
     17 OD1          3.1930    -2.9160    -1.3430 o          1 NX6      -0.870300
     18 OD2          3.3270    -2.4260     0.8250 o          1 NX6      -0.870300
     19 OXT          4.0000     2.1560     0.2130 o          1 NX6      -0.859800
     20 HN           0.8800    -0.3810    -0.9200 hn         1 NX6       0.306500
     21 H2          -2.0440     0.3170     2.0860 h1         1 NX6       0.042700
     22 H2A         -2.0890     1.8090     1.1420 h1         1 NX6       0.042700
     23 H4          -3.3090    -1.6980     1.2920 ha         1 NX6       0.138500
     24 H5          -5.3340    -2.4930     0.1350 ha         1 NX6       0.114500
     25 H6          -6.5440    -0.9950    -1.4200 ha         1 NX6       0.108000
     26 H7          -5.7060     1.2990    -1.8170 ha         1 NX6       0.114500
     27 H8          -3.6780     2.0920    -0.6610 ha         1 NX6       0.138500
     28 HA           2.8410     0.0700     1.2030 h1         1 NX6       0.079700
     29 HB           3.1550    -0.4510    -1.7770 hc         1 NX6       0.029700
     30 HBA          4.4510    -0.3300    -0.6050 hc         1 NX6       0.029700
@<TRIPOS>BOND
     1     1     3 1   
     2     1    14 1   
     3     1    19 1   
     4     2     4 1   
     5     2    14 1   
     6     2    20 1   
     7     4     5 2   
     8     4     7 1   
     9     6     7 1   
    10     6     8 1   
    11     6    21 1   
    12     6    22 1   
    13     8     9 ar  
    14     8    13 ar  
    15     9    10 ar  
    16     9    23 1   
    17    10    11 ar  
    18    10    24 1   
    19    11    12 ar  
    20    11    25 1   
    21    12    13 ar  
    22    12    26 1   
    23    13    27 1   
    24    14    15 1   
    25    14    28 1   
    26    15    16 1   
    27    15    29 1   
    28    15    30 1   
    29    16    17 1   
    30    16    18 1   
@<TRIPOS>SUBSTRUCTURE
     1 NX6         1 TEMP              0 ****  ****    0 ROOT
