@<TRIPOS>MOLECULE
NX7
   26    27     1     0     0
SMALL
bcc


@<TRIPOS>ATOM
      1 C4          -1.5710    -1.1760     0.3220 ca         1 NX7       0.191900
      2 C5          -0.8120    -0.0180     0.2900 ca         1 NX7      -0.234600
      3 C6           0.5270     0.0490     0.9670 c          1 NX7       0.701700
      4 C7           2.9480     0.1010     0.6890 c5         1 NX7       0.103000
      5 C8           3.8030     0.2420    -0.5660 c5         1 NX7      -0.094900
      6 C10          1.5610    -0.1300    -1.2930 c5         1 NX7       0.103000
      7 N            1.5880     0.0170     0.1620 n          1 NX7      -0.471800
      8 C           -1.3880     1.0870    -0.3120 ca         1 NX7       0.191900
      9 O            0.5970     0.1220     2.1860 o          1 NX7      -0.582100
     10 C1          -2.6500     1.0640    -0.8710 ca         1 NX7      -0.193000
     11 C2          -3.3660    -0.1230    -0.8240 ca         1 NX7      -0.066000
     12 C3          -2.8340    -1.2580    -0.2280 ca         1 NX7      -0.193000
     13 C9           3.0000    -0.5080    -1.6240 c5         1 NX7      -0.094900
     14 F           -0.6750     2.2200    -0.3450 f          1 NX7      -0.129400
     15 F1          -1.0320    -2.2570     0.8990 f          1 NX7      -0.129400
     16 H2           3.0510     0.9440     1.3720 h1         1 NX7       0.054200
     17 H3           3.8980     1.2940    -0.8430 hc         1 NX7       0.055450
     18 H4           4.8070    -0.1550    -0.4230 hc         1 NX7       0.055450
     19 H5           0.8450    -0.8890    -1.6050 h1         1 NX7       0.054200
     20 H6           1.2880     0.8130    -1.7730 h1         1 NX7       0.054200
     21 H7          -3.0610     1.9520    -1.3320 ha         1 NX7       0.158000
     22 H8          -4.3550    -0.1660    -1.2590 ha         1 NX7       0.142000
     23 H9          -3.3880    -2.1870    -0.1940 ha         1 NX7       0.158000
     24 H10          3.2670    -0.2360    -2.6440 hc         1 NX7       0.055450
     25 H11          3.1390    -1.5860    -1.5160 hc         1 NX7       0.055450
     26 H1           3.1950    -0.8090     1.2410 h1         1 NX7       0.054200
@<TRIPOS>BOND
     1     1     2 ar  
     2     1    12 ar  
     3     1    15 1   
     4     2     3 1   
     5     2     8 ar  
     6     3     7 1   
     7     3     9 2   
     8     4     5 1   
     9     4     7 1   
    10     4    16 1   
    11     4    26 1   
    12     5    13 1   
    13     5    17 1   
    14     5    18 1   
    15     6     7 1   
    16     6    13 1   
    17     6    19 1   
    18     6    20 1   
    19     8    10 ar  
    20     8    14 1   
    21    10    11 ar  
    22    10    21 1   
    23    11    12 ar  
    24    11    22 1   
    25    12    23 1   
    26    13    24 1   
    27    13    25 1   
@<TRIPOS>SUBSTRUCTURE
     1 NX7         1 TEMP              0 ****  ****    0 ROOT
