@<TRIPOS>MOLECULE
NX7
   26    27     1     0     0
SMALL
No Charge or Current Charge


@<TRIPOS>ATOM
      1 C4          -1.7440    -1.2000     0.5010 ca         1 NX7       0.227000
      2 C5          -0.8540    -0.1260     0.3330 ca         1 NX7      -0.234600
      3 C6           0.4950    -0.1700     0.9710 c          1 NX7       0.634700
      4 C7           2.9920     0.0900     0.6900 c5         1 NX7       0.103000
      5 C8           3.7980     0.4510    -0.5810 c5         1 NX7      -0.094900
      6 C10          1.5930    -0.1730    -1.3210 c5         1 NX7       0.103000
      7 N            1.6210     0.0230     0.1470 n          1 NX7      -0.404800
      8 C           -1.2730     0.9970    -0.4040 ca         1 NX7       0.227000
      9 O            0.6160    -0.3050     2.1820 o          1 NX7      -0.582100
     10 C1          -2.5490     1.0310    -0.9900 ca         1 NX7      -0.175000
     11 C2          -3.4250    -0.0560    -0.8380 ca         1 NX7      -0.048000
     12 C3          -3.0190    -1.1710    -0.0870 ca         1 NX7      -0.175000
     13 C9           3.0900    -0.4250    -1.6440 c5         1 NX7      -0.094900
     14 F           -0.4740     2.0800    -0.5220 f          1 NX7      -0.164500
     15 F1          -1.3720    -2.2940     1.2020 f          1 NX7      -0.164500
     16 H2           3.0930     0.8530     1.4740 h1         1 NX7       0.054200
     17 H3           3.7090     1.5180    -0.8190 hc         1 NX7       0.055450
     18 H4           4.8650     0.2220    -0.4800 hc         1 NX7       0.055450
     19 H5           0.9610    -1.0190    -1.6220 h1         1 NX7       0.054200
     20 H6           1.2320     0.7310    -1.8290 h1         1 NX7       0.054200
     21 H7          -2.8590     1.9070    -1.5540 ha         1 NX7       0.140000
     22 H8          -4.4150    -0.0310    -1.2920 ha         1 NX7       0.124000
     23 H9          -3.6910    -2.0160     0.0410 ha         1 NX7       0.140000
     24 H10          3.3500    -0.1450    -2.6710 hc         1 NX7       0.055450
     25 H11          3.3470    -1.4830    -1.5170 hc         1 NX7       0.055450
     26 H1           3.2960    -0.8810     1.1030 h1         1 NX7       0.054200
@<TRIPOS>BOND
     1     1     2 ar  
     2     1    12 ar  
     3     1    15 1   
     4     2     3 1   
     5     2     8 ar  
     6     3     7 1   
     7     3     9 2   
     8     4     5 1   
     9     4     7 1   
    10     4    16 1   
    11     4    26 1   
    12     5    13 1   
    13     5    17 1   
    14     5    18 1   
    15     6     7 1   
    16     6    13 1   
    17     6    19 1   
    18     6    20 1   
    19     8    10 ar  
    20     8    14 1   
    21    10    11 ar  
    22    10    21 1   
    23    11    12 ar  
    24    11    22 1   
    25    12    23 1   
    26    13    24 1   
    27    13    25 1   
@<TRIPOS>SUBSTRUCTURE
     1 NX7         1 TEMP              0 ****  ****    0 ROOT
