@<TRIPOS>MOLECULE
NX8
   50    53     1     0     0
SMALL
bcc


@<TRIPOS>ATOM
      1 C4           3.6460    -0.2070    -0.3880 ca         1 NX8       0.441800
      2 C5           3.9710     1.1320    -0.5320 ca         1 NX8      -0.226200
      3 C6           5.3330     1.4570    -0.3970 ca         1 NX8       0.779200
      4 C8           1.8780     1.0120    -0.8030 cc         1 NX8       0.421700
      5 N1           6.1930     0.4630    -0.1480 nb         1 NX8      -0.830000
      6 N3           4.4880    -1.2090    -0.1400 nb         1 NX8      -0.752000
      7 C2           5.7350    -0.7810    -0.0370 ca         1 NX8       0.705900
      8 CAG         -7.4700     1.0200     0.1970 c6         1 NX8       0.160800
      9 CAH         -6.4240    -0.3840    -1.4500 c6         1 NX8       0.160800
     10 CAI         -6.1200     1.4610     0.7420 c6         1 NX8      -0.071900
     11 CAJ         -5.0340     0.0070    -0.9720 c6         1 NX8      -0.071900
     12 CAK         -3.7030     0.8620     1.0170 c3         1 NX8       0.103000
     13 CAR         -1.6650    -0.0800    -0.0040 c          1 NX8       0.663100
     14 CAV         -5.0590     0.3860     0.5070 c6         1 NX8      -0.083700
     15 CAW          0.1130    -1.2870     1.3670 c5         1 NX8       0.069100
     16 CAX          1.3670    -2.0330     0.8990 c5         1 NX8       0.081100
     17 CAY         -0.7200    -1.2720     0.0790 c5         1 NX8       0.049100
     18 CAZ          1.5070    -1.4970    -0.5230 c5         1 NX8       0.272800
     19 N6           5.7920     2.7050    -0.5030 nv         1 NX8      -0.955500
     20 N7           2.8520     1.8770    -0.7910 nd         1 NX8      -0.559100
     21 N9           2.2930    -0.2690    -0.5580 na         1 NX8      -0.289000
     22 NAO         -7.3570     0.7050    -1.2160 n7         1 NX8      -0.805200
     23 OAB         -1.4960     0.8300    -0.8000 o          1 NX8      -0.584100
     24 OAC         -0.5870    -1.9350     2.3880 oh         1 NX8      -0.595800
     25 OAD          1.1270    -3.4080     0.7970 oh         1 NX8      -0.578800
     26 OAQ          0.2130    -1.2360    -0.9790 os         1 NX8      -0.360600
     27 H1           0.8420     1.2480    -0.9900 h5         1 NX8       0.099800
     28 H2           6.4850    -1.5370     0.1650 h5         1 NX8       0.045100
     29 H4          -8.2040     1.8190     0.3230 h1         1 NX8       0.028700
     30 H5          -6.4030    -0.6070    -2.5190 h1         1 NX8       0.028700
     31 H6          -6.7250    -1.3120    -0.9370 h1         1 NX8       0.028700
     32 H7          -5.8140     2.3890     0.2440 hc         1 NX8       0.051200
     33 H8          -6.2100     1.6840     1.8080 hc         1 NX8       0.051200
     34 H9          -4.3450    -0.8230    -1.1450 hc         1 NX8       0.051200
     35 H10         -4.6690     0.8560    -1.5610 hc         1 NX8       0.051200
     36 H11         -3.3920     1.7550     0.4740 h1         1 NX8       0.058700
     37 H12         -3.7840     1.1400     2.0710 h1         1 NX8       0.058700
     38 H13         -5.3500    -0.5030     1.0830 hc         1 NX8       0.040700
     39 H14          0.3880    -0.2650     1.6550 h1         1 NX8       0.067700
     40 H15          2.2430    -1.8110     1.5200 h1         1 NX8       0.083700
     41 H16         -1.3090    -2.1970     0.0230 h1         1 NX8       0.091700
     42 H17          1.9990    -2.2190    -1.1810 h2         1 NX8       0.128700
     43 H18          5.1770     3.4680    -0.7240 hn         1 NX8       0.451800
     44 H19          6.7770     2.8910    -0.4300 hn         1 NX8       0.451800
     45 H20         -8.2670     0.4520    -1.5790 hn         1 NX8       0.355800
     46 H23         -0.2620    -1.6250     3.2390 ho         1 NX8       0.424000
     47 H24          0.6830    -3.6970     1.6030 ho         1 NX8       0.424000
     48 NAP         -2.6630    -0.1350     0.8870 ns         1 NX8      -0.570900
     49 H3          -7.8270     0.1630     0.7930 h1         1 NX8       0.028700
     50 H22         -2.7080    -0.9310     1.5050 hn         1 NX8       0.321500
@<TRIPOS>BOND
     1     1     2 ar  
     2     1     6 ar  
     3     1    21 1   
     4     2     3 ar  
     5     2    20 1   
     6     3     5 ar  
     7     3    19 1   
     8     4    20 2   
     9     4    21 1   
    10     4    27 1   
    11     5     7 ar  
    12     6     7 ar  
    13     7    28 1   
    14     8    10 1   
    15     8    22 1   
    16     8    29 1   
    17     8    49 1   
    18     9    11 1   
    19     9    22 1   
    20     9    30 1   
    21     9    31 1   
    22    10    14 1   
    23    10    32 1   
    24    10    33 1   
    25    11    14 1   
    26    11    34 1   
    27    11    35 1   
    28    12    14 1   
    29    12    36 1   
    30    12    37 1   
    31    12    48 1   
    32    13    17 1   
    33    13    23 2   
    34    13    48 1   
    35    14    38 1   
    36    15    16 1   
    37    15    17 1   
    38    15    24 1   
    39    15    39 1   
    40    16    18 1   
    41    16    25 1   
    42    16    40 1   
    43    17    26 1   
    44    17    41 1   
    45    18    21 1   
    46    18    26 1   
    47    18    42 1   
    48    19    43 1   
    49    19    44 1   
    50    22    45 1   
    51    24    46 1   
    52    25    47 1   
    53    48    50 1   
@<TRIPOS>SUBSTRUCTURE
     1 NX8         1 TEMP              0 ****  ****    0 ROOT
