@<TRIPOS>MOLECULE
NX8
   50    53     1     0     0
SMALL
No Charge or Current Charge


@<TRIPOS>ATOM
      1 C4           2.7470    -0.2260    -0.5720 ca         1 NX8       0.113500
      2 C5           3.1960     1.0610    -0.4190 ca         1 NX8      -0.095600
      3 C6           3.6790     1.7370    -1.5580 ca         1 NX8       0.450900
      4 C8           2.5710     0.4450     1.5470 cc         1 NX8       0.421700
      5 N1           3.7000     1.1440    -2.7620 nb         1 NX8      -0.304000
      6 N3           2.7620    -0.8550    -1.7640 nb         1 NX8      -0.226000
      7 C2           3.2390    -0.1300    -2.8050 ca         1 NX8       0.179900
      8 CAG         -6.6900     1.3140    -1.0220 c6         1 NX8       0.160800
      9 CAH         -5.3050    -0.3170    -2.2480 c6         1 NX8       0.160800
     10 CAI         -5.4970     1.6980    -0.1120 c6         1 NX8      -0.071900
     11 CAJ         -4.0720     0.0150    -1.3720 c6         1 NX8      -0.071900
     12 CAK         -3.2850     0.9220     0.9290 c3         1 NX8       0.103000
     13 CAR         -1.1890    -0.4310     0.5300 c          1 NX8       0.596100
     14 CAV         -4.4960     0.5190     0.0380 c6         1 NX8      -0.083700
     15 CAW         -0.0110    -1.5060     2.5300 c5         1 NX8       0.092300
     16 CAX          1.3740    -2.2230     2.5030 c5         1 NX8       0.104300
     17 CAY         -0.5520    -1.7470     1.0770 c5         1 NX8       0.072300
     18 CAZ          1.8050    -1.9530     1.0210 c5         1 NX8       0.325300
     19 N6           4.1440     3.0150    -1.5120 nv         1 NX8      -1.065900
     20 N7           3.0950     1.5050     0.9030 nd         1 NX8      -0.559100
     21 N9           2.3420    -0.6270     0.6710 na         1 NX8      -0.318300
     22 NAO         -6.2270     0.8400    -2.3470 n7         1 NX8      -0.860400
     23 OAB         -0.7770     0.2870    -0.3730 o          1 NX8      -0.584100
     24 OAC         -0.8650    -2.0800     3.5380 oh         1 NX8      -0.718000
     25 OAD          1.1880    -3.6170     2.7940 oh         1 NX8      -0.701000
     26 OAQ          0.5870    -2.1830     0.2770 os         1 NX8      -0.407000
     27 H1           2.3520     0.3980     2.6080 h5         1 NX8       0.099800
     28 H2           3.2530    -0.6230    -3.7760 h5         1 NX8       0.045100
     29 H4          -7.3490     2.1860    -1.1540 h1         1 NX8       0.028700
     30 H5          -4.9740    -0.6080    -3.2560 h1         1 NX8       0.028700
     31 H6          -5.8420    -1.1730    -1.8140 h1         1 NX8       0.028700
     32 H7          -4.9840     2.5730    -0.5360 hc         1 NX8       0.051200
     33 H8          -5.8730     2.0030     0.8740 hc         1 NX8       0.051200
     34 H9          -3.4440    -0.8820    -1.2860 hc         1 NX8       0.051200
     35 H10         -3.4610     0.7770    -1.8750 hc         1 NX8       0.051200
     36 H11         -2.7350     1.7410     0.4460 h1         1 NX8       0.058700
     37 H12         -3.6620     1.2970     1.8900 h1         1 NX8       0.058700
     38 H13         -5.0070    -0.3010     0.5620 hc         1 NX8       0.040700
     39 H14          0.1210    -0.4280     2.7100 h1         1 NX8       0.067700
     40 H15          2.0810    -1.7780     3.2180 h1         1 NX8       0.083700
     41 H16         -1.3150    -2.5350     1.0510 h1         1 NX8       0.091700
     42 H17          2.5770    -2.6710     0.7130 h2         1 NX8       0.128700
     43 H18          3.9310     3.5440    -0.6700 hn         1 NX8       0.507000
     44 H19          4.1900     3.5410    -2.3800 hn         1 NX8       0.507000
     45 H20         -7.0450     0.5650    -2.9050 hn         1 NX8       0.411000
     46 H23         -0.7540    -1.5520     4.3680 ho         1 NX8       0.523000
     47 H24          0.2810    -3.6400     3.1950 ho         1 NX8       0.523000
     48 NAP         -2.3730    -0.1930     1.2020 ns         1 NX8      -0.503900
     49 H3          -7.2800     0.5220    -0.5360 h1         1 NX8       0.028700
     50 H22         -2.6180    -0.8470     1.9390 hn         1 NX8       0.321500
@<TRIPOS>BOND
     1     1     2 ar  
     2     1     6 ar  
     3     1    21 1   
     4     2     3 ar  
     5     2    20 1   
     6     3     5 ar  
     7     3    19 1   
     8     4    20 2   
     9     4    21 1   
    10     4    27 1   
    11     5     7 ar  
    12     6     7 ar  
    13     7    28 1   
    14     8    10 1   
    15     8    22 1   
    16     8    29 1   
    17     8    49 1   
    18     9    11 1   
    19     9    22 1   
    20     9    30 1   
    21     9    31 1   
    22    10    14 1   
    23    10    32 1   
    24    10    33 1   
    25    11    14 1   
    26    11    34 1   
    27    11    35 1   
    28    12    14 1   
    29    12    36 1   
    30    12    37 1   
    31    12    48 1   
    32    13    17 1   
    33    13    23 2   
    34    13    48 1   
    35    14    38 1   
    36    15    16 1   
    37    15    17 1   
    38    15    24 1   
    39    15    39 1   
    40    16    18 1   
    41    16    25 1   
    42    16    40 1   
    43    17    26 1   
    44    17    41 1   
    45    18    21 1   
    46    18    26 1   
    47    18    42 1   
    48    19    43 1   
    49    19    44 1   
    50    22    45 1   
    51    24    46 1   
    52    25    47 1   
    53    48    50 1   
@<TRIPOS>SUBSTRUCTURE
     1 NX8         1 TEMP              0 ****  ****    0 ROOT
