@<TRIPOS>MOLECULE
NX9
   26    27     1     0     0
SMALL
No Charge or Current Charge


@<TRIPOS>ATOM
      1 N1           6.4710     0.8810    17.6190 na         1 NX9      -0.015200
      2 C4          10.4700    -0.2240    22.7800 ca         1 NX9      -0.064300
      3 C5           8.9560    -0.0570    22.8670 c3         1 NX9      -0.105100
      4 C6           8.4060     0.5900    21.5890 c          1 NX9       0.597100
      5 C7           7.2340    -0.0330    19.4580 cc         1 NX9      -0.071400
      6 C8           7.1220     1.1700    18.8290 cd         1 NX9      -0.165000
      7 C10         11.0290    -1.4200    22.2860 ca         1 NX9      -0.094000
      8 O            8.5040     1.7930    21.3810 o          1 NX9      -0.588100
      9 C3          11.3240     0.8200    23.1890 ca         1 NX9      -0.085000
     10 C2          12.7200     0.6710    23.1060 ca         1 NX9      -0.100000
     11 C1          13.2710    -0.5250    22.6120 ca         1 NX9      -0.096000
     12 C           12.4240    -1.5670    22.2030 ca         1 NX9       0.125000
     13 Cl          13.1110    -3.0640    21.5840 cl         1 NX9      -0.214000
     14 N            7.8110    -0.2930    20.7020 ns         1 NX9      -0.375100
     15 C9           6.6480    -0.9840    18.6020 cc         1 NX9       0.209900
     16 N2           6.1750    -0.4770    17.4820 nd         1 NX9      -0.505800
     17 H1           6.2230     1.5550    16.8950 hn         1 NX9       0.376000
     18 H2           8.7080     0.5870    23.7190 hc         1 NX9       0.066700
     19 H3           8.4950    -1.0410    23.0170 hc         1 NX9       0.066700
     20 H4           7.4320     2.1700    19.1130 h4         1 NX9       0.183000
     21 H5          10.3870    -2.2360    21.9650 ha         1 NX9       0.127000
     22 H6          10.9070     1.7500    23.5690 ha         1 NX9       0.119000
     23 H7          13.3730     1.4810    23.4220 ha         1 NX9       0.120000
     24 H8          14.3490    -0.6430    22.5470 ha         1 NX9       0.131000
     25 H9           7.8120    -1.2550    21.0220 hn         1 NX9       0.321500
     26 H10          6.5550    -2.0480    18.7730 h4         1 NX9       0.036100
@<TRIPOS>BOND
     1     1     6 1   
     2     1    16 1   
     3     1    17 1   
     4     2     3 1   
     5     2     7 ar  
     6     2     9 ar  
     7     3     4 1   
     8     3    18 1   
     9     3    19 1   
    10     4     8 2   
    11     4    14 1   
    12     5     6 2   
    13     5    14 1   
    14     5    15 1   
    15     6    20 1   
    16     7    12 ar  
    17     7    21 1   
    18     9    10 ar  
    19     9    22 1   
    20    10    11 ar  
    21    10    23 1   
    22    11    12 ar  
    23    11    24 1   
    24    12    13 1   
    25    14    25 1   
    26    15    16 2   
    27    15    26 1   
@<TRIPOS>SUBSTRUCTURE
     1 NX9         1 TEMP              0 ****  ****    0 ROOT
