@<TRIPOS>MOLECULE
NX9
   26    27     1     0     0
SMALL
abcg2


@<TRIPOS>ATOM
      1 N1           6.3120     0.9600    17.6270 na         1 NX9      -0.015200
      2 C4          10.6350    -0.3370    22.7010 ca         1 NX9      -0.064300
      3 C5           9.1400    -0.3720    22.5290 c3         1 NX9      -0.105100
      4 C6           8.6950     0.2070    21.1900 c          1 NX9       0.597100
      5 C7           6.9700    -0.0140    19.4650 cc         1 NX9      -0.071400
      6 C8           7.2450     1.0370    18.6060 cd         1 NX9      -0.165000
      7 C10         11.4180    -1.3550    22.1560 ca         1 NX9      -0.094000
      8 O            9.2510     1.1690    20.6690 o          1 NX9      -0.588100
      9 C3          11.2580     0.7110    23.3750 ca         1 NX9      -0.085000
     10 C2          12.6420     0.7480    23.5030 ca         1 NX9      -0.100000
     11 C1          13.4280    -0.2620    22.9600 ca         1 NX9      -0.096000
     12 C           12.7970    -1.3030    22.2920 ca         1 NX9       0.125000
     13 CL          13.7710    -2.5890    21.6020 cl         1 NX9      -0.214000
     14 N            7.6150    -0.4010    20.6420 ns         1 NX9      -0.375100
     15 C9           5.8470    -0.6630    18.9060 cc         1 NX9       0.209900
     16 N2           5.4560    -0.0600    17.7850 nd         1 NX9      -0.505800
     17 H1           6.2210     1.5730    16.8320 hn         1 NX9       0.376000
     18 H2           8.6630     0.2360    23.3030 hc         1 NX9       0.066700
     19 H3           8.7650    -1.3900    22.6400 hc         1 NX9       0.066700
     20 H4           8.0020     1.7960    18.6240 h4         1 NX9       0.183000
     21 H5          10.9560    -2.1810    21.6310 ha         1 NX9       0.127000
     22 H6          10.6540     1.5020    23.8030 ha         1 NX9       0.119000
     23 H7          13.1160     1.5650    24.0300 ha         1 NX9       0.120000
     24 H8          14.5050    -0.2450    23.0560 ha         1 NX9       0.131000
     25 H9           7.2280    -1.1980    21.1240 hn         1 NX9       0.321500
     26 H10          5.3270    -1.5310    19.2790 h4         1 NX9       0.036100
@<TRIPOS>BOND
     1     1     6 1   
     2     1    16 1   
     3     1    17 1   
     4     2     3 1   
     5     2     7 ar  
     6     2     9 ar  
     7     3     4 1   
     8     3    18 1   
     9     3    19 1   
    10     4     8 2   
    11     4    14 1   
    12     5     6 2   
    13     5    14 1   
    14     5    15 1   
    15     6    20 1   
    16     7    12 ar  
    17     7    21 1   
    18     9    10 ar  
    19     9    22 1   
    20    10    11 ar  
    21    10    23 1   
    22    11    12 ar  
    23    11    24 1   
    24    12    13 1   
    25    14    25 1   
    26    15    16 2   
    27    15    26 1   
@<TRIPOS>SUBSTRUCTURE
     1 NX9         1 TEMP              0 ****  ****    0 ROOT
