@<TRIPOS>MOLECULE
NXA
   14    13     1     0     0
SMALL
abcg2


@<TRIPOS>ATOM
      1 N           -0.3740    -0.2150     0.6390 ns         1 NXA      -0.570900
      2 CA           0.4560     0.1010    -0.4890 c3         1 NXA       0.014700
      3 C           -0.3670     0.0910    -1.7980 c          1 NXA       0.704000
      4 OXT          0.2310     0.4980    -2.8140 o          1 NXA      -0.770000
      5 CB           1.6420    -0.8590    -0.6260 c3         1 NXA      -0.078100
      6 OD1         -0.9050    -0.3200     2.8190 o          1 NXA      -0.799500
      7 OD2          1.0350     0.6070     2.2000 o          1 NXA      -0.799500
      8 C1          -0.0580     0.0400     1.9630 c          1 NXA       0.742000
      9 O           -1.5400    -0.3330    -1.7530 o          1 NXA      -0.770000
     10 H           -1.2650    -0.6260     0.4200 hn         1 NXA       0.291500
     11 HA           0.8640     1.1120    -0.3720 h1         1 NXA       0.026700
     12 HBC1         1.2940    -1.8820    -0.7870 hc         1 NXA       0.003367
     13 HBC2         2.2850    -0.5840    -1.4620 hc         1 NXA       0.003367
     14 HBC3         2.2400    -0.8460     0.2840 hc         1 NXA       0.003367
@<TRIPOS>BOND
     1     1     2 1   
     2     1     8 1   
     3     1    10 1   
     4     2     3 1   
     5     2     5 1   
     6     2    11 1   
     7     3     4 1   
     8     3     9 1   
     9     5    12 1   
    10     5    13 1   
    11     5    14 1   
    12     6     8 1   
    13     7     8 1   
@<TRIPOS>SUBSTRUCTURE
     1 NXA         1 TEMP              0 ****  ****    0 ROOT
