@<TRIPOS>MOLECULE
NXA
   14    13     1     0     0
SMALL
No Charge or Current Charge


@<TRIPOS>ATOM
      1 N           -0.3560    -0.1800     0.6710 ns         1 NXA      -0.570900
      2 CA           0.5070     0.0670    -0.5140 c3         1 NXA       0.014700
      3 C           -0.3430     0.1350    -1.8340 c          1 NXA       0.704000
      4 OXT         -0.2340     1.1260    -2.5450 o          1 NXA      -0.770000
      5 CB           1.6380    -0.9840    -0.6260 c3         1 NXA      -0.078100
      6 OD1         -0.9110    -0.1640     2.7870 o          1 NXA      -0.799500
      7 OD2          0.9550     0.7350     2.2270 o          1 NXA      -0.799500
      8 C1          -0.0760     0.1470     1.9630 c          1 NXA       0.742000
      9 O           -1.1480    -0.7580    -2.0690 o          1 NXA      -0.770000
     10 H           -1.2360    -0.6550     0.5230 hn         1 NXA       0.291500
     11 HA           0.9750     1.0520    -0.3860 h1         1 NXA       0.026700
     12 HBC1         1.2240    -1.9920    -0.7460 hc         1 NXA       0.003367
     13 HBC2         2.2730    -0.7690    -1.4930 hc         1 NXA       0.003367
     14 HBC3         2.2720    -0.9760     0.2680 hc         1 NXA       0.003367
@<TRIPOS>BOND
     1     1     2 1   
     2     1     8 1   
     3     1    10 1   
     4     2     3 1   
     5     2     5 1   
     6     2    11 1   
     7     3     4 1   
     8     3     9 1   
     9     5    12 1   
    10     5    13 1   
    11     5    14 1   
    12     6     8 1   
    13     7     8 1   
@<TRIPOS>SUBSTRUCTURE
     1 NXA         1 TEMP              0 ****  ****    0 ROOT
