@<TRIPOS>MOLECULE
NXB
   36    38     1     0     0
SMALL
bcc


@<TRIPOS>ATOM
      1 C10         -3.2400    -2.0100    -0.4060 ca         1 NXB       0.703900
      2 C17          2.5650    -0.9200     0.6650 c6         1 NXB       0.146100
      3 C02          3.6180     0.4240    -1.1670 c6         1 NXB       0.083500
      4 C03          2.2250     0.9680    -1.4600 c6         1 NXB       0.136400
      5 C05          1.2280    -0.3080     0.2300 c6         1 NXB       0.082100
      6 C06          0.2650    -0.1840     1.3970 c3         1 NXB       0.067300
      7 C08         -2.0310    -0.3640     0.4010 ca         1 NXB       0.442800
      8 C12         -4.1750     0.0910    -0.5050 ca         1 NXB       0.777200
      9 C14         -3.0030     0.5790     0.1000 ca         1 NXB      -0.227200
     10 C16         -1.4110     1.6430     0.9810 cc         1 NXB       0.421700
     11 C19          3.4670    -0.9800    -0.5710 c6         1 NXB       0.112100
     12 N01          4.3160     1.2860    -0.2150 n8         1 NXB      -0.890800
     13 N07         -1.0160     0.3380     0.9780 na         1 NXB      -0.243000
     14 N09         -2.0980    -1.6740     0.1680 nb         1 NXB      -0.752000
     15 N11         -4.2570    -1.2220    -0.7480 nb         1 NXB      -0.830000
     16 N13         -5.2000     0.8810    -0.8340 nv         1 NXB      -0.955500
     17 N15         -2.5950     1.8330     0.4730 nd         1 NXB      -0.561100
     18 O04          1.4040     0.9780    -0.3150 os         1 NXB      -0.391600
     19 O18          3.1460    -0.2120     1.7280 oh         1 NXB      -0.602800
     20 O20          4.7010    -1.5490    -0.2080 oh         1 NXB      -0.572800
     21 H1          -3.3720    -3.0630    -0.6310 h5         1 NXB       0.044100
     22 H2           2.3660    -1.9430     1.0080 h1         1 NXB       0.081700
     23 H3           4.1420     0.3500    -2.1320 h1         1 NXB       0.027700
     24 H5           1.7730     0.3610    -2.2580 h1         1 NXB       0.052200
     25 H6           0.7780    -0.9780    -0.5220 h1         1 NXB       0.054700
     26 H7           0.1100    -1.1630     1.8500 h1         1 NXB       0.085200
     27 H8           0.6690     0.4750     2.1630 h1         1 NXB       0.085200
     28 H9          -0.7750     2.4150     1.3880 h5         1 NXB       0.070800
     29 H10          2.9540    -1.6030    -1.3180 h1         1 NXB       0.037700
     30 H11          5.2820     0.9940    -0.1360 hn         1 NXB       0.356300
     31 H12          4.3360     2.2400    -0.5540 hn         1 NXB       0.356300
     32 H14         -5.9930     0.5020    -1.3230 hn         1 NXB       0.450300
     33 H15         -5.1450     1.8770    -0.7180 hn         1 NXB       0.450300
     34 H16          3.5720     0.5730     1.3190 ho         1 NXB       0.450000
     35 H17          5.2170    -1.6790    -1.0110 ho         1 NXB       0.400000
     36 H4           2.2830     1.9960    -1.8230 h1         1 NXB       0.052200
@<TRIPOS>BOND
     1     1    14 ar  
     2     1    15 ar  
     3     1    21 1   
     4     2     5 1   
     5     2    11 1   
     6     2    19 1   
     7     2    22 1   
     8     3     4 1   
     9     3    11 1   
    10     3    12 1   
    11     3    23 1   
    12     4    18 1   
    13     4    24 1   
    14     4    36 1   
    15     5     6 1   
    16     5    18 1   
    17     5    25 1   
    18     6    13 1   
    19     6    26 1   
    20     6    27 1   
    21     7     9 ar  
    22     7    13 1   
    23     7    14 ar  
    24     8     9 ar  
    25     8    15 ar  
    26     8    16 1   
    27     9    17 1   
    28    10    13 1   
    29    10    17 2   
    30    10    28 1   
    31    11    20 1   
    32    11    29 1   
    33    12    30 1   
    34    12    31 1   
    35    16    32 1   
    36    16    33 1   
    37    19    34 1   
    38    20    35 1   
@<TRIPOS>SUBSTRUCTURE
     1 NXB         1 TEMP              0 ****  ****    0 ROOT
