@<TRIPOS>MOLECULE
NXB
   36    38     1     0     0
SMALL
No Charge or Current Charge


@<TRIPOS>ATOM
      1 C10         -3.5560    -2.1290    -0.1170 ca         1 NXB       0.177900
      2 C17          2.5540    -0.9820     0.5950 c6         1 NXB       0.169300
      3 C02          3.8120     0.4920    -1.0680 c6         1 NXB       0.083500
      4 C03          2.4450     1.1800    -1.3990 c6         1 NXB       0.159600
      5 C05          1.2420    -0.2630     0.1430 c6         1 NXB       0.105300
      6 C06          0.1780    -0.1940     1.2740 c3         1 NXB       0.096600
      7 C08         -2.1700    -0.4000     0.4470 ca         1 NXB       0.114500
      8 C12         -4.3830    -0.0070    -0.3540 ca         1 NXB       0.448900
      9 C14         -3.1510     0.5010     0.1110 ca         1 NXB      -0.096600
     10 C16         -1.4770     1.7130     0.7400 cc         1 NXB       0.421700
     11 C19          3.5380    -0.9880    -0.6240 c6         1 NXB       0.135300
     12 N01          4.5890     1.2460    -0.0270 n8         1 NXB      -1.001200
     13 N07         -1.1180     0.3690     0.8530 na         1 NXB      -0.272300
     14 N09         -2.3440    -1.7320     0.3420 nb         1 NXB      -0.226000
     15 N11         -4.5900    -1.3280    -0.4730 nb         1 NXB      -0.304000
     16 N13         -5.4180     0.7970    -0.7160 nv         1 NXB      -1.065900
     17 N15         -2.7420     1.8310     0.2870 nd         1 NXB      -0.561100
     18 O04          1.5380     1.0960    -0.2730 os         1 NXB      -0.438000
     19 O18          3.1750    -0.2590     1.6730 oh         1 NXB      -0.725000
     20 O20          4.7700    -1.6670    -0.3040 oh         1 NXB      -0.635000
     21 H1          -3.7150    -3.2020    -0.2090 h5         1 NXB       0.044100
     22 H2           2.3230    -2.0170     0.8880 h1         1 NXB       0.081700
     23 H3           4.4210     0.4890    -1.9850 h1         1 NXB       0.027700
     24 H5           1.9810     0.6930    -2.2690 h1         1 NXB       0.052200
     25 H6           0.8010    -0.8100    -0.7040 h1         1 NXB       0.054700
     26 H7           0.0170    -1.2060     1.6670 h1         1 NXB       0.085200
     27 H8           0.5750     0.4150     2.0960 h1         1 NXB       0.085200
     28 H9          -0.8010     2.5210     0.9920 h5         1 NXB       0.070800
     29 H10          3.0430    -1.5110    -1.4560 h1         1 NXB       0.037700
     30 H11          5.5630     0.9100    -0.0400 hn         1 NXB       0.411500
     31 H12          4.6880     2.2260    -0.3290 hn         1 NXB       0.411500
     32 H14         -6.1420     0.4020    -1.3090 hn         1 NXB       0.505500
     33 H15         -5.2110     1.7850    -0.8450 hn         1 NXB       0.505500
     34 H16          3.7420     0.3970     1.1550 ho         1 NXB       0.549000
     35 H17          5.3220    -1.6540    -1.1160 ho         1 NXB       0.439000
     36 H4           2.6050     2.2370    -1.6540 h1         1 NXB       0.052200
@<TRIPOS>BOND
     1     1    14 ar  
     2     1    15 ar  
     3     1    21 1   
     4     2     5 1   
     5     2    11 1   
     6     2    19 1   
     7     2    22 1   
     8     3     4 1   
     9     3    11 1   
    10     3    12 1   
    11     3    23 1   
    12     4    18 1   
    13     4    24 1   
    14     4    36 1   
    15     5     6 1   
    16     5    18 1   
    17     5    25 1   
    18     6    13 1   
    19     6    26 1   
    20     6    27 1   
    21     7     9 ar  
    22     7    13 1   
    23     7    14 ar  
    24     8     9 ar  
    25     8    15 ar  
    26     8    16 1   
    27     9    17 1   
    28    10    13 1   
    29    10    17 2   
    30    10    28 1   
    31    11    20 1   
    32    11    29 1   
    33    12    30 1   
    34    12    31 1   
    35    16    32 1   
    36    16    33 1   
    37    19    34 1   
    38    20    35 1   
@<TRIPOS>SUBSTRUCTURE
     1 NXB         1 TEMP              0 ****  ****    0 ROOT
