@<TRIPOS>MOLECULE
NXD
   49    49     1     0     0
SMALL
No Charge or Current Charge


@<TRIPOS>ATOM
      1 C11         -2.8280     4.3380     1.3620 c3         1 NXD      -0.181100
      2 C10         -2.8200     3.2770     0.2680 c          1 NXD       0.605100
      3 O10         -3.0870     3.5330    -0.8970 o          1 NXD      -0.608100
      4 N5          -2.4710     2.0160     0.6950 ns         1 NXD      -0.493900
      5 C5          -2.4670     0.7910    -0.1400 c6         1 NXD       0.074700
      6 C4          -3.6720    -0.1310     0.2060 c6         1 NXD       0.157300
      7 O4          -4.9210     0.5480    -0.0020 oh         1 NXD      -0.667000
      8 C3          -3.6290    -1.4080    -0.6600 c6         1 NXD      -0.116400
      9 C2          -2.2930    -2.1820    -0.4870 c6         1 NXD       0.264000
     10 C1          -2.2710    -2.9070     0.9670 c          1 NXD       0.687000
     11 O1A         -1.4510    -2.5040     1.7850 o          1 NXD      -0.703000
     12 O1B         -2.5500    -4.1030     0.9940 o          1 NXD      -0.703000
     13 O2          -2.2510    -3.1360    -1.5870 os         1 NXD      -0.454000
     14 CB          -1.0430    -3.9050    -1.7620 c3         1 NXD       0.168900
     15 O6          -1.1930    -1.2490    -0.7520 os         1 NXD      -0.511000
     16 C6          -1.1470    -0.0150     0.0330 c6         1 NXD       0.163300
     17 C7           0.1060     0.7670    -0.4960 c3         1 NXD       0.154300
     18 O7           0.1740     0.5890    -1.9210 oh         1 NXD      -0.723000
     19 C8           1.4470     0.3000     0.1530 c3         1 NXD       0.116300
     20 O8           1.4270     0.5400     1.5780 oh         1 NXD      -0.635000
     21 C9           2.6960     0.9900    -0.4610 c3         1 NXD       0.063000
     22 NAB          3.9300     0.6720     0.2700 ns         1 NXD      -0.462900
     23 CAC          5.2110     0.8900    -0.2070 c          1 NXD       0.518100
     24 OAD          5.4210     1.3890    -1.3130 o          1 NXD      -0.624100
     25 CAF          6.3910     0.4410     0.8010 c          1 NXD       0.520100
     26 OAG          6.1910    -0.0550     1.9050 o          1 NXD      -0.605100
     27 NAK          7.6620     0.6440     0.3570 nt         1 NXD      -0.582000
     28 H111        -3.4980     4.0150     2.1680 hc         1 NXD       0.050700
     29 H112        -1.8520     4.3460     1.8610 hc         1 NXD       0.050700
     30 H113        -3.0980     5.3320     0.9870 hc         1 NXD       0.050700
     31 HN5         -2.2840     1.9220     1.6870 hn         1 NXD       0.306500
     32 H5          -2.5510     1.0810    -1.1970 h1         1 NXD       0.102700
     33 H4          -3.5870    -0.4230     1.2640 h1         1 NXD       0.050700
     34 HO4         -5.6300    -0.0470     0.3250 ho         1 NXD       0.438000
     35 H31         -3.7650    -1.1390    -1.7160 hc         1 NXD       0.060200
     36 H32         -4.4670    -2.0680    -0.3970 hc         1 NXD       0.060200
     37 HB1         -0.1930    -3.2540    -2.0020 h1         1 NXD       0.023700
     38 HB2         -0.7940    -4.4770    -0.8600 h1         1 NXD       0.023700
     39 HB3         -1.1650    -4.6160    -2.5890 h1         1 NXD       0.023700
     40 H6          -1.0020    -0.2400     1.0970 h1         1 NXD       0.084700
     41 H7          -0.0190     1.8320    -0.2610 h1         1 NXD       0.056700
     42 HO7         -0.3030    -0.2720    -2.0520 ho         1 NXD       0.528000
     43 H8           1.5430    -0.7800    -0.0330 h1         1 NXD       0.116700
     44 HO8          1.5030     1.5090     1.7190 ho         1 NXD       0.422000
     45 H91          2.8100     0.6690    -1.5050 h1         1 NXD       0.062700
     46 H92          2.5560     2.0790    -0.4580 h1         1 NXD       0.062700
     47 HAB          3.8540     0.2580     1.1960 hn         1 NXD       0.351500
     48 HAK1         7.8130     1.0540    -0.5550 hn         1 NXD       0.325000
     49 HAK2         8.4430     0.3840     0.9410 hn         1 NXD       0.325000
@<TRIPOS>BOND
     1     1     2 1   
     2     1    28 1   
     3     1    29 1   
     4     1    30 1   
     5     2     3 2   
     6     2     4 1   
     7     4     5 1   
     8     4    31 1   
     9     5     6 1   
    10     5    16 1   
    11     5    32 1   
    12     6     7 1   
    13     6     8 1   
    14     6    33 1   
    15     7    34 1   
    16     8     9 1   
    17     8    35 1   
    18     8    36 1   
    19     9    10 1   
    20     9    13 1   
    21     9    15 1   
    22    10    11 1   
    23    10    12 1   
    24    13    14 1   
    25    14    37 1   
    26    14    38 1   
    27    14    39 1   
    28    15    16 1   
    29    16    17 1   
    30    16    40 1   
    31    17    18 1   
    32    17    19 1   
    33    17    41 1   
    34    18    42 1   
    35    19    20 1   
    36    19    21 1   
    37    19    43 1   
    38    20    44 1   
    39    21    22 1   
    40    21    45 1   
    41    21    46 1   
    42    22    23 1   
    43    22    47 1   
    44    23    24 2   
    45    23    25 1   
    46    25    26 2   
    47    25    27 1   
    48    27    48 1   
    49    27    49 1   
@<TRIPOS>SUBSTRUCTURE
     1 NXD         1 TEMP              0 ****  ****    0 ROOT
