@<TRIPOS>MOLECULE
NXD
   49    49     1     0     0
SMALL
bcc


@<TRIPOS>ATOM
      1 C11         -3.0750     4.1470     1.4970 c3         1 NXD      -0.181100
      2 C10         -2.9500     3.1650     0.3570 c          1 NXD       0.672100
      3 O10         -3.1110     3.5080    -0.8050 o          1 NXD      -0.608100
      4 N5          -2.6190     1.9130     0.7240 ns         1 NXD      -0.560900
      5 C5          -2.4620     0.8000    -0.1800 c6         1 NXD       0.074700
      6 C4          -3.5920    -0.2090    -0.0120 c6         1 NXD       0.134100
      7 O4          -4.7960     0.4340    -0.3600 oh         1 NXD      -0.604800
      8 C3          -3.3200    -1.4300    -0.8760 c6         1 NXD      -0.116400
      9 C2          -1.9700    -2.0440    -0.5300 c6         1 NXD       0.217600
     10 C1          -1.9620    -2.6960     0.8950 c          1 NXD       0.897600
     11 O1A         -0.9800    -2.4820     1.6220 o          1 NXD      -0.808300
     12 O1B         -2.9540    -3.4060     1.1450 o          1 NXD      -0.808300
     13 O2          -1.7070    -3.0060    -1.5030 os         1 NXD      -0.407600
     14 CB          -0.5500    -3.7990    -1.3200 c3         1 NXD       0.145700
     15 O6          -0.9690    -1.0590    -0.6730 os         1 NXD      -0.464600
     16 C6          -1.1070     0.1220     0.0780 c6         1 NXD       0.140100
     17 C7           0.0670     1.0060    -0.3490 c3         1 NXD       0.131100
     18 O7           0.1260     1.1270    -1.7490 oh         1 NXD      -0.600800
     19 C8           1.3900     0.4920     0.2410 c3         1 NXD       0.093100
     20 O8           1.3840     0.6000     1.6480 oh         1 NXD      -0.572800
     21 C9           2.5870     1.2270    -0.3580 c3         1 NXD       0.063000
     22 NAB          3.8070     0.7880     0.2780 ns         1 NXD      -0.529900
     23 CAC          4.9510     0.5730    -0.3610 c          1 NXD       0.585100
     24 OAD          5.1430     0.7060    -1.5610 o          1 NXD      -0.624100
     25 CAF          6.0820     0.1180     0.5800 c          1 NXD       0.587100
     26 OAG          5.8940    -0.0040     1.7810 o          1 NXD      -0.605100
     27 NAK          7.2260    -0.1110    -0.0530 nt         1 NXD      -0.649000
     28 H111        -3.0610     3.6800     2.4800 hc         1 NXD       0.050700
     29 H112        -2.2510     4.8590     1.4460 hc         1 NXD       0.050700
     30 H113        -4.0010     4.7110     1.3930 hc         1 NXD       0.050700
     31 HN5         -2.5390     1.7160     1.7100 hn         1 NXD       0.306500
     32 H5          -2.4870     1.1890    -1.2000 h1         1 NXD       0.102700
     33 H4          -3.6200    -0.5200     1.0440 h1         1 NXD       0.050700
     34 HO4         -5.5210    -0.1720    -0.1800 ho         1 NXD       0.399000
     35 H31         -3.3160    -1.1300    -1.9290 hc         1 NXD       0.060200
     36 H32         -4.1090    -2.1710    -0.7420 hc         1 NXD       0.060200
     37 HB1          0.3570    -3.2010    -1.2090 h1         1 NXD       0.023700
     38 HB2         -0.6320    -4.4700    -0.4600 h1         1 NXD       0.023700
     39 HB3         -0.4510    -4.4110    -2.2150 h1         1 NXD       0.023700
     40 H6          -1.0190    -0.0860     1.1510 h1         1 NXD       0.084700
     41 H7          -0.0980     2.0190     0.0390 h1         1 NXD       0.056700
     42 HO7          0.0520     0.2380    -2.1170 ho         1 NXD       0.429000
     43 H8           1.4960    -0.5760     0.0280 h1         1 NXD       0.116700
     44 HO8          1.2700     1.5270     1.8880 ho         1 NXD       0.383000
     45 H91          2.6580     1.0330    -1.4250 h1         1 NXD       0.062700
     46 H92          2.4670     2.3100    -0.2310 h1         1 NXD       0.062700
     47 HAB          3.8010     0.6630     1.2800 hn         1 NXD       0.351500
     48 HAK1         7.3010     0.0150    -1.0480 hn         1 NXD       0.325000
     49 HAK2         8.0440    -0.4100     0.4540 hn         1 NXD       0.325000
@<TRIPOS>BOND
     1     1     2 1   
     2     1    28 1   
     3     1    29 1   
     4     1    30 1   
     5     2     3 2   
     6     2     4 1   
     7     4     5 1   
     8     4    31 1   
     9     5     6 1   
    10     5    16 1   
    11     5    32 1   
    12     6     7 1   
    13     6     8 1   
    14     6    33 1   
    15     7    34 1   
    16     8     9 1   
    17     8    35 1   
    18     8    36 1   
    19     9    10 1   
    20     9    13 1   
    21     9    15 1   
    22    10    11 1   
    23    10    12 1   
    24    13    14 1   
    25    14    37 1   
    26    14    38 1   
    27    14    39 1   
    28    15    16 1   
    29    16    17 1   
    30    16    40 1   
    31    17    18 1   
    32    17    19 1   
    33    17    41 1   
    34    18    42 1   
    35    19    20 1   
    36    19    21 1   
    37    19    43 1   
    38    20    44 1   
    39    21    22 1   
    40    21    45 1   
    41    21    46 1   
    42    22    23 1   
    43    22    47 1   
    44    23    24 2   
    45    23    25 1   
    46    25    26 2   
    47    25    27 1   
    48    27    48 1   
    49    27    49 1   
@<TRIPOS>SUBSTRUCTURE
     1 NXD         1 TEMP              0 ****  ****    0 ROOT
