@<TRIPOS>MOLECULE
NXE
   18    18     1     0     0
SMALL
abcg2


@<TRIPOS>ATOM
      1 C1           4.7560    -0.7470     0.0360 c3         1 NXE      -0.181100
      2 C2           3.5020     0.0680    -0.0970 c          1 NXE       0.612100
      3 N4           2.3490    -0.6840    -0.0010 ns         1 NXE      -0.493400
      4 C5           1.0600    -0.2430    -0.0280 cc         1 NXE       0.323900
      5 C6          -0.1030    -0.9520     0.0290 cd         1 NXE      -0.291000
      6 C7          -1.0690     0.0670    -0.0370 cd         1 NXE       0.182300
      7 O9           0.7990     1.0570    -0.1170 os         1 NXE      -0.037700
      8 C10         -2.5500    -0.1080     0.0020 c3         1 NXE       0.290700
      9 O3           3.4850     1.2680    -0.2450 o          1 NXE      -0.516100
     10 N8          -0.5500     1.2540    -0.1240 nc         1 NXE      -0.310300
     11 F11         -3.1920     1.0350    -0.2130 f          1 NXE      -0.099667
     12 F12         -2.9450    -0.9860    -0.9230 f          1 NXE      -0.099667
     13 F13         -2.9370    -0.5820     1.1890 f          1 NXE      -0.099667
     14 H1           4.9970    -0.8620     1.0950 hc         1 NXE       0.071367
     15 H2           4.6580    -1.7440    -0.3910 hc         1 NXE       0.071367
     16 H3           5.5840    -0.2330    -0.4450 hc         1 NXE       0.071367
     17 H4           2.4480    -1.6840     0.0980 hn         1 NXE       0.339500
     18 H5          -0.2360    -2.0180     0.1010 ha         1 NXE       0.166000
@<TRIPOS>BOND
     1     1     2 1   
     2     1    14 1   
     3     1    15 1   
     4     1    16 1   
     5     2     3 1   
     6     2     9 2   
     7     3     4 1   
     8     3    17 1   
     9     4     5 2   
    10     4     7 1   
    11     5     6 1   
    12     5    18 1   
    13     6     8 1   
    14     6    10 2   
    15     7    10 1   
    16     8    11 1   
    17     8    12 1   
    18     8    13 1   
@<TRIPOS>SUBSTRUCTURE
     1 NXE         1 TEMP              0 ****  ****    0 ROOT
