@<TRIPOS>MOLECULE
NXE
   18    18     1     0     0
SMALL
No Charge or Current Charge


@<TRIPOS>ATOM
      1 C1           4.7960    -0.8150    -0.0530 c3         1 NXE      -0.181100
      2 C2           3.5550     0.0650     0.0060 c          1 NXE       0.612100
      3 N4           2.3660    -0.6220    -0.0280 ns         1 NXE      -0.493400
      4 C5           1.0930    -0.0940     0.0100 cc         1 NXE       0.323900
      5 C6          -0.0500    -0.8160    -0.0250 cd         1 NXE      -0.291000
      6 C7          -1.1080     0.1180     0.0350 cd         1 NXE       0.182300
      7 O9           0.7780     1.2400     0.0900 os         1 NXE      -0.037700
      8 C10         -2.5970    -0.1890     0.0260 c3         1 NXE       0.290700
      9 O3           3.6250     1.2820     0.0760 o          1 NXE      -0.516100
     10 N8          -0.6640     1.3650     0.1050 nc         1 NXE      -0.310300
     11 F11         -3.2230     0.3830    -1.0290 f          1 NXE      -0.099667
     12 F12         -2.8440    -1.5180    -0.0470 f          1 NXE      -0.099667
     13 F13         -3.2120     0.2620     1.1440 f          1 NXE      -0.099667
     14 H1           4.7530    -1.5490     0.7600 hc         1 NXE       0.071367
     15 H2           4.7430    -1.4490    -0.9450 hc         1 NXE       0.071367
     16 H3           5.7250    -0.2340    -0.0240 hc         1 NXE       0.071367
     17 H4           2.4530    -1.6280    -0.0870 hn         1 NXE       0.339500
     18 H5          -0.1330    -1.8950    -0.0870 ha         1 NXE       0.166000
@<TRIPOS>BOND
     1     1     2 1   
     2     1    14 1   
     3     1    15 1   
     4     1    16 1   
     5     2     3 1   
     6     2     9 2   
     7     3     4 1   
     8     3    17 1   
     9     4     5 2   
    10     4     7 1   
    11     5     6 1   
    12     5    18 1   
    13     6     8 1   
    14     6    10 2   
    15     7    10 1   
    16     8    11 1   
    17     8    12 1   
    18     8    13 1   
@<TRIPOS>SUBSTRUCTURE
     1 NXE         1 TEMP              0 ****  ****    0 ROOT
