@<TRIPOS>MOLECULE
NXG
   51    52     1     0     0
SMALL
abcg2


@<TRIPOS>ATOM
      1 C01         -2.4470     2.1910     0.3140 ca         1 NXG      -0.031000
      2 C1          -0.3700     1.1160     0.9570 ca         1 NXG      -0.212300
      3 N1           1.9750     0.3870     1.0560 n3         1 NXG      -0.742600
      4 O1           0.0340    -1.1200     0.2330 oh         1 NXG      -0.555100
      5 C02         -2.8350     1.0290    -0.3540 ca         1 NXG      -0.011000
      6 C2           0.9180     1.1260     1.7400 c3         1 NXG       0.209100
      7 N2           5.6380    -0.9340    -0.7290 n3         1 NXG      -0.727600
      8 C03          3.0710     0.0410     1.9520 c6         1 NXG       0.159800
      9 C3          -1.2070     2.2150     0.9590 ca         1 NXG      -0.023000
     10 C4          -1.9940    -0.0680    -0.3720 ca         1 NXG       0.124000
     11 C7          -0.7560    -0.0530     0.2730 ca         1 NXG       0.220100
     12 C8           4.1120    -0.8210     1.2550 c6         1 NXG      -0.082900
     13 C10          4.6800    -0.1190     0.0220 c6         1 NXG       0.193500
     14 C11          6.3780    -0.1210    -1.6870 c3         1 NXG       0.170800
     15 C12          7.2690    -0.9250    -2.6210 c3         1 NXG      -0.110100
     16 C13          6.5140    -1.7750     0.0750 c3         1 NXG       0.170800
     17 C14          7.5280    -1.0550     0.9620 c3         1 NXG      -0.110100
     18 C15          3.4940     0.2660    -0.8670 c6         1 NXG      -0.082900
     19 C16          2.4760     1.1030    -0.1130 c6         1 NXG       0.159800
     20 C17         -3.3020     3.3300     0.3390 cg         1 NXG      -0.088000
     21 C18         -4.0230     4.2960     0.3660 c1         1 NXG      -0.137100
     22 C19         -4.9100     5.4530     0.3970 c3         1 NXG       0.254700
     23 O2          -4.1330     6.6280     0.3510 oh         1 NXG      -0.649000
     24 I2          -2.5710    -1.8080    -1.3950 i          1 NXG      -0.296000
     25 H02         -3.7900     0.9990    -0.8600 ha         1 NXG       0.131000
     26 H3          -0.8970     3.1120     1.4810 ha         1 NXG       0.120000
     27 H21C         1.2200     2.1590     1.9580 h1         1 NXG       0.049200
     28 H22C         0.7440     0.6390     2.7050 h1         1 NXG       0.049200
     29 H031         3.5460     0.9530     2.3440 h1         1 NXG       0.042450
     30 H032         2.6640    -0.5010     2.8070 h1         1 NXG       0.042450
     31 H161         1.6400     1.3490    -0.7700 h1         1 NXG       0.042450
     32 H162         2.9300     2.0570     0.1970 h1         1 NXG       0.042450
     33 H1           0.9420    -0.8090     0.5530 ho         1 NXG       0.528000
     34 H10          5.1580     0.8160     0.3710 h1         1 NXG       0.019700
     35 H111         5.6600     0.4220    -2.3030 h1         1 NXG       0.038950
     36 H112         6.9840     0.6520    -1.1860 h1         1 NXG       0.038950
     37 H131         5.9000    -2.4380     0.6850 h1         1 NXG       0.038950
     38 H132         7.0490    -2.4420    -0.6040 h1         1 NXG       0.038950
     39 H81C         4.8890    -1.0380     1.9890 hc         1 NXG       0.059450
     40 H82C         3.6590    -1.7740     0.9640 hc         1 NXG       0.059450
     41 H151         3.8090     0.8370    -1.7400 hc         1 NXG       0.059450
     42 H152         3.0200    -0.6490    -1.2360 hc         1 NXG       0.059450
     43 H121         8.1360    -1.3500    -2.1160 hc         1 NXG       0.036867
     44 H122         6.7120    -1.7410    -3.0850 hc         1 NXG       0.036867
     45 H123         7.6430    -0.2790    -3.4160 hc         1 NXG       0.036867
     46 H141         8.2280    -0.4550     0.3790 hc         1 NXG       0.036867
     47 H142         7.0480    -0.3910     1.6830 hc         1 NXG       0.036867
     48 H143         8.1140    -1.7820     1.5270 hc         1 NXG       0.036867
     49 H191        -5.6010     5.3830    -0.4530 h1         1 NXG       0.034700
     50 H192        -5.5250     5.4020     1.3040 h1         1 NXG       0.034700
     51 H2          -4.7370     7.3760     0.3850 ho         1 NXG       0.445000
@<TRIPOS>BOND
     1     1     5 ar  
     2     1     9 ar  
     3     1    20 1   
     4     2     6 1   
     5     2     9 ar  
     6     2    11 ar  
     7     3     6 1   
     8     3     8 1   
     9     3    19 1   
    10     4    11 1   
    11     4    33 1   
    12     5    10 ar  
    13     5    25 1   
    14     6    27 1   
    15     6    28 1   
    16     7    13 1   
    17     7    14 1   
    18     7    16 1   
    19     8    12 1   
    20     8    29 1   
    21     8    30 1   
    22     9    26 1   
    23    10    11 ar  
    24    10    24 1   
    25    12    13 1   
    26    12    39 1   
    27    12    40 1   
    28    13    18 1   
    29    13    34 1   
    30    14    15 1   
    31    14    35 1   
    32    14    36 1   
    33    15    43 1   
    34    15    44 1   
    35    15    45 1   
    36    16    17 1   
    37    16    37 1   
    38    16    38 1   
    39    17    46 1   
    40    17    47 1   
    41    17    48 1   
    42    18    19 1   
    43    18    41 1   
    44    18    42 1   
    45    19    31 1   
    46    19    32 1   
    47    20    21 3   
    48    21    22 1   
    49    22    23 1   
    50    22    49 1   
    51    22    50 1   
    52    23    51 1   
@<TRIPOS>SUBSTRUCTURE
     1 NXG         1 TEMP              0 ****  ****    0 ROOT
