@<TRIPOS>MOLECULE
NXG
   51    52     1     0     0
SMALL
No Charge or Current Charge


@<TRIPOS>ATOM
      1 C01         -2.4810     2.2500     0.2420 ca         1 NXG      -0.031000
      2 C1          -0.4620     1.0510     0.9310 ca         1 NXG      -0.212300
      3 N1           1.9270     0.2950     1.1020 n3         1 NXG      -0.742600
      4 O1          -0.0360    -1.1280     0.0650 oh         1 NXG      -0.555100
      5 C02         -2.8650     1.1560    -0.5540 ca         1 NXG      -0.011000
      6 C2           0.8100     1.0010     1.7770 c3         1 NXG       0.209100
      7 N2           5.7290    -1.0460    -0.6200 n3         1 NXG      -0.727600
      8 C03          3.0220    -0.0470     2.0430 c6         1 NXG       0.159800
      9 C3          -1.2850     2.1950     0.9830 ca         1 NXG      -0.023000
     10 C4          -2.0560     0.0100    -0.6130 ca         1 NXG       0.124000
     11 C7          -0.8550    -0.0410     0.1280 ca         1 NXG       0.220100
     12 C8           4.1090    -0.8980     1.3520 c6         1 NXG      -0.082900
     13 C10          4.7120    -0.1850     0.1020 c6         1 NXG       0.193500
     14 C11          6.2680    -0.4210    -1.8710 c3         1 NXG       0.170800
     15 C12          7.2220    -1.3050    -2.7040 c3         1 NXG      -0.110100
     16 C13          6.8040    -1.6050     0.2610 c3         1 NXG       0.170800
     17 C14          7.7360    -0.5590     0.9130 c3         1 NXG      -0.110100
     18 C15          3.5310     0.2490    -0.8200 c6         1 NXG      -0.082900
     19 C16          2.4630     1.0600    -0.0560 c6         1 NXG       0.159800
     20 C17         -3.3090     3.4190     0.3030 cg         1 NXG      -0.088000
     21 C18         -4.0060     4.4130     0.3480 c1         1 NXG      -0.137100
     22 C19         -4.8770     5.5930     0.3700 c3         1 NXG       0.254700
     23 O2          -4.3600     6.5740     1.2750 oh         1 NXG      -0.649000
     24 I2          -2.6760    -1.6590    -1.8680 i          1 NXG      -0.296000
     25 H02         -3.7870     1.1910    -1.1280 ha         1 NXG       0.131000
     26 H3          -0.9980     3.0410     1.6050 ha         1 NXG       0.120000
     27 H21C         1.1170     2.0220     2.0460 h1         1 NXG       0.049200
     28 H22C         0.5590     0.4880     2.7160 h1         1 NXG       0.049200
     29 H031         3.4810     0.8680     2.4460 h1         1 NXG       0.042450
     30 H032         2.6260    -0.6140     2.8980 h1         1 NXG       0.042450
     31 H161         1.6550     1.3170    -0.7570 h1         1 NXG       0.042450
     32 H162         2.9060     2.0080     0.2840 h1         1 NXG       0.042450
     33 H1           0.8200    -0.7920     0.4650 ho         1 NXG       0.528000
     34 H10          5.2050     0.7340     0.4500 h1         1 NXG       0.019700
     35 H111         5.4440    -0.1770    -2.5510 h1         1 NXG       0.038950
     36 H112         6.7780     0.5230    -1.6370 h1         1 NXG       0.038950
     37 H131         6.3660    -2.2200     1.0570 h1         1 NXG       0.038950
     38 H132         7.4290    -2.3060    -0.3050 h1         1 NXG       0.038950
     39 H81C         4.8840    -1.0990     2.1010 hc         1 NXG       0.059450
     40 H82C         3.6850    -1.8680     1.0610 hc         1 NXG       0.059450
     41 H151         3.8860     0.8840    -1.6400 hc         1 NXG       0.059450
     42 H152         3.0660    -0.6350    -1.2750 hc         1 NXG       0.059450
     43 H121         8.1880    -1.4360    -2.2030 hc         1 NXG       0.036867
     44 H122         6.7780    -2.2910    -2.8850 hc         1 NXG       0.036867
     45 H123         7.4140    -0.8340    -3.6750 hc         1 NXG       0.036867
     46 H141         8.2580     0.0340     0.1530 hc         1 NXG       0.036867
     47 H142         7.1760     0.1220     1.5640 hc         1 NXG       0.036867
     48 H143         8.4920    -1.0630     1.5250 hc         1 NXG       0.036867
     49 H191        -4.9410     6.0030    -0.6470 h1         1 NXG       0.034700
     50 H192        -5.8860     5.2820     0.6730 h1         1 NXG       0.034700
     51 H2          -4.9820     7.3340     1.2450 ho         1 NXG       0.445000
@<TRIPOS>BOND
     1     1     5 ar  
     2     1     9 ar  
     3     1    20 1   
     4     2     6 1   
     5     2     9 ar  
     6     2    11 ar  
     7     3     6 1   
     8     3     8 1   
     9     3    19 1   
    10     4    11 1   
    11     4    33 1   
    12     5    10 ar  
    13     5    25 1   
    14     6    27 1   
    15     6    28 1   
    16     7    13 1   
    17     7    14 1   
    18     7    16 1   
    19     8    12 1   
    20     8    29 1   
    21     8    30 1   
    22     9    26 1   
    23    10    11 ar  
    24    10    24 1   
    25    12    13 1   
    26    12    39 1   
    27    12    40 1   
    28    13    18 1   
    29    13    34 1   
    30    14    15 1   
    31    14    35 1   
    32    14    36 1   
    33    15    43 1   
    34    15    44 1   
    35    15    45 1   
    36    16    17 1   
    37    16    37 1   
    38    16    38 1   
    39    17    46 1   
    40    17    47 1   
    41    17    48 1   
    42    18    19 1   
    43    18    41 1   
    44    18    42 1   
    45    19    31 1   
    46    19    32 1   
    47    20    21 3   
    48    21    22 1   
    49    22    23 1   
    50    22    49 1   
    51    22    50 1   
    52    23    51 1   
@<TRIPOS>SUBSTRUCTURE
     1 NXG         1 TEMP              0 ****  ****    0 ROOT
