@<TRIPOS>MOLECULE
NXH
   26    26     1     0     0
SMALL
bcc


@<TRIPOS>ATOM
      1 C1          -3.7820    -0.6050     1.3440 c3         1 NXH      -0.111600
      2 C2          -3.4100    -0.2110    -0.0820 c3         1 NXH       0.126700
      3 C3          -4.4640     0.6920    -0.7070 c3         1 NXH      -0.111600
      4 N4          -2.1220     0.4620    -0.1370 ns         1 NXH      -0.587900
      5 C5          -0.9510    -0.2080    -0.1210 c          1 NXH       0.798100
      6 C8           1.4870     0.2700    -0.0700 ca         1 NXH       0.131600
      7 C10          3.3600    -1.2150    -0.0190 ca         1 NXH       0.423200
      8 C12          3.7750     1.0020    -0.0600 ca         1 NXH       0.423200
      9 C13          2.4290     1.3060    -0.0810 ca         1 NXH      -0.300300
     10 O6          -0.8690    -1.4260    -0.1540 o          1 NXH      -0.617100
     11 N7           0.1550     0.6230    -0.0840 ns         1 NXH      -0.490100
     12 C9           1.9870    -1.0350    -0.0380 ca         1 NXH      -0.300300
     13 N11          4.2590    -0.2370    -0.0300 nb         1 NXH      -0.685000
     14 H1          -3.8560     0.2760     1.9830 hc         1 NXH       0.043533
     15 H2          -4.7460    -1.1150     1.3610 hc         1 NXH       0.043533
     16 H3          -3.0400    -1.2780     1.7740 hc         1 NXH       0.043533
     17 H4          -3.3320    -1.1150    -0.6880 h1         1 NXH       0.078700
     18 H5          -4.5950     1.6100    -0.1300 hc         1 NXH       0.043533
     19 H6          -4.1960     0.9650    -1.7280 hc         1 NXH       0.043533
     20 H7          -5.4260     0.1810    -0.7360 hc         1 NXH       0.043533
     21 H8          -2.1240     1.4600    -0.0000 hn         1 NXH       0.306500
     22 H9           3.7490    -2.2270     0.0070 h4         1 NXH       0.016600
     23 H10          4.5000     1.8070    -0.0700 h4         1 NXH       0.016600
     24 H11          2.1140     2.3420    -0.1040 ha         1 NXH       0.154500
     25 H12         -0.0170     1.6180    -0.0920 hn         1 NXH       0.312500
     26 H13          1.3390    -1.8950    -0.0260 ha         1 NXH       0.154500
@<TRIPOS>BOND
     1     1     2 1   
     2     1    14 1   
     3     1    15 1   
     4     1    16 1   
     5     2     3 1   
     6     2     4 1   
     7     2    17 1   
     8     3    18 1   
     9     3    19 1   
    10     3    20 1   
    11     4     5 1   
    12     4    21 1   
    13     5    10 2   
    14     5    11 1   
    15     6     9 ar  
    16     6    11 1   
    17     6    12 ar  
    18     7    12 ar  
    19     7    13 ar  
    20     7    22 1   
    21     8     9 ar  
    22     8    13 ar  
    23     8    23 1   
    24     9    24 1   
    25    11    25 1   
    26    12    26 1   
@<TRIPOS>SUBSTRUCTURE
     1 NXH         1 TEMP              0 ****  ****    0 ROOT
