@<TRIPOS>MOLECULE
NXH
   26    26     1     0     0
SMALL
No Charge or Current Charge


@<TRIPOS>ATOM
      1 C1          -3.8950    -0.5720     1.3770 c3         1 NXH      -0.111600
      2 C2          -3.4730    -0.2030    -0.0590 c3         1 NXH       0.126700
      3 C3          -4.4840     0.7390    -0.7380 c3         1 NXH      -0.111600
      4 N4          -2.1400     0.3990    -0.0670 ns         1 NXH      -0.520900
      5 C5          -0.9600    -0.3080    -0.0760 c          1 NXH       0.664100
      6 C8           1.5420     0.2420    -0.0670 ca         1 NXH       0.039000
      7 C10          3.4880    -1.2120    -0.0770 ca         1 NXH       0.357900
      8 C12          3.8230     1.0760    -0.0620 ca         1 NXH       0.357900
      9 C13          2.4410     1.3200    -0.0600 ca         1 NXH      -0.217000
     10 O6          -0.9290    -1.5300    -0.0930 o          1 NXH      -0.617100
     11 N7           0.1500     0.5200    -0.0650 ns         1 NXH      -0.164000
     12 C9           2.0930    -1.0540    -0.0760 ca         1 NXH      -0.217000
     13 N11          4.3480    -0.1690    -0.0700 nb         1 NXH      -0.685000
     14 H1          -3.9410     0.3200     2.0120 hc         1 NXH       0.043533
     15 H2          -4.8840    -1.0470     1.3780 hc         1 NXH       0.043533
     16 H3          -3.1820    -1.2760     1.8220 hc         1 NXH       0.043533
     17 H4          -3.4360    -1.1300    -0.6500 h1         1 NXH       0.078700
     18 H5          -4.5660     1.6860    -0.1910 hc         1 NXH       0.043533
     19 H6          -4.1730     0.9590    -1.7670 hc         1 NXH       0.043533
     20 H7          -5.4770     0.2760    -0.7760 hc         1 NXH       0.043533
     21 H8          -2.0710     1.4090    -0.0540 hn         1 NXH       0.306500
     22 H9           3.9320    -2.2070    -0.0830 h4         1 NXH       0.016600
     23 H10          4.5330     1.9020    -0.0570 h4         1 NXH       0.016600
     24 H11          2.0810     2.3460    -0.0540 ha         1 NXH       0.136500
     25 H12         -0.0670     1.5070    -0.0530 hn         1 NXH       0.146000
     26 H13          1.4740    -1.9440    -0.0810 ha         1 NXH       0.136500
@<TRIPOS>BOND
     1     1     2 1   
     2     1    14 1   
     3     1    15 1   
     4     1    16 1   
     5     2     3 1   
     6     2     4 1   
     7     2    17 1   
     8     3    18 1   
     9     3    19 1   
    10     3    20 1   
    11     4     5 1   
    12     4    21 1   
    13     5    10 2   
    14     5    11 1   
    15     6     9 ar  
    16     6    11 1   
    17     6    12 ar  
    18     7    12 ar  
    19     7    13 ar  
    20     7    22 1   
    21     8     9 ar  
    22     8    13 ar  
    23     8    23 1   
    24     9    24 1   
    25    11    25 1   
    26    12    26 1   
@<TRIPOS>SUBSTRUCTURE
     1 NXH         1 TEMP              0 ****  ****    0 ROOT
