@<TRIPOS>MOLECULE
NXI
   28    29     1     0     0
SMALL
bcc


@<TRIPOS>ATOM
      1 C1           4.2360     6.4080    42.4430 c3         1 NXI      -0.078100
      2 C2           5.0570     7.6710    42.2360 c3         1 NXI      -0.157400
      3 C3           5.9470     7.9970    43.4180 c          1 NXI       0.667100
      4 C6           8.1150     9.0000    44.0590 c3         1 NXI       0.151300
      5 C7           9.2860     8.0560    44.1640 ca         1 NXI      -0.152300
      6 C8           9.0870     6.7590    44.6980 ca         1 NXI      -0.072000
      7 C10         11.3730     6.2500    44.3770 ca         1 NXI      -0.035200
      8 C14         12.9850     7.5340    43.5310 cc         1 NXI       0.354800
      9 C15         11.6000     7.5290    43.8430 ca         1 NXI      -0.236900
     10 C16         10.5370     8.4390    43.7360 ca         1 NXI      -0.045000
     11 O4           5.5990     7.7850    44.5720 o          1 NXI      -0.607100
     12 N5           7.1270     8.5610    43.0970 ns         1 NXI      -0.576900
     13 C9          10.1060     5.8450    44.8150 ca         1 NXI      -0.151000
     14 N11         12.5700     5.6200    44.3480 na         1 NXI      -0.011100
     15 N13         13.5370     6.3870    43.8420 nd         1 NXI      -0.516100
     16 H17          3.6000     6.2260    41.5770 hc         1 NXI       0.042367
     17 H18          4.8740     5.5340    42.5740 hc         1 NXI       0.042367
     18 H1           3.5910     6.4890    43.3160 hc         1 NXI       0.042367
     19 H19          5.6490     7.5930    41.3220 hc         1 NXI       0.054200
     20 H27          4.3890     8.5250    42.0890 hc         1 NXI       0.054200
     21 H21          8.4670     9.9920    43.7690 h1         1 NXI       0.062200
     22 H22          7.6220     9.1050    45.0240 h1         1 NXI       0.062200
     23 H23          8.0950     6.4810    45.0320 ha         1 NXI       0.148000
     24 H25         13.5750     8.3280    43.0990 h4         1 NXI       0.049800
     25 H26         10.6990     9.4290    43.3250 ha         1 NXI       0.133000
     26 H20          7.3660     8.6520    42.1230 hn         1 NXI       0.310500
     27 H24          9.9350     4.8610    45.2300 ha         1 NXI       0.140000
     28 H12         12.7840     4.6840    44.6560 hn         1 NXI       0.325700
@<TRIPOS>BOND
     1     1     2 1   
     2     1    16 1   
     3     1    17 1   
     4     1    18 1   
     5     2     3 1   
     6     2    19 1   
     7     2    20 1   
     8     3    11 2   
     9     3    12 1   
    10     4     5 1   
    11     4    12 1   
    12     4    21 1   
    13     4    22 1   
    14     5     6 ar  
    15     5    10 ar  
    16     6    13 ar  
    17     6    23 1   
    18     7     9 ar  
    19     7    13 ar  
    20     7    14 1   
    21     8     9 1   
    22     8    15 2   
    23     8    24 1   
    24     9    10 ar  
    25    10    25 1   
    26    12    26 1   
    27    13    27 1   
    28    14    15 1   
    29    14    28 1   
@<TRIPOS>SUBSTRUCTURE
     1 NXI         1 TEMP              0 ****  ****    0 ROOT
