@<TRIPOS>MOLECULE
NXI
   28    29     1     0     0
SMALL
No Charge or Current Charge


@<TRIPOS>ATOM
      1 C1           3.9800     6.8670    42.3000 c3         1 NXI      -0.078100
      2 C2           5.0890     7.8620    41.8950 c3         1 NXI      -0.157400
      3 C3           5.7900     8.4580    43.1210 c          1 NXI       0.600100
      4 C6           7.9130     8.4290    44.4510 c3         1 NXI       0.151300
      5 C7           9.2380     7.6860    44.4380 ca         1 NXI      -0.152300
      6 C8           9.3600     6.4380    45.1050 ca         1 NXI      -0.054000
      7 C10         11.6580     6.3140    44.4110 ca         1 NXI      -0.035200
      8 C14         12.8390     7.7640    43.1910 cc         1 NXI       0.354800
      9 C15         11.5450     7.5060    43.7710 ca         1 NXI      -0.236900
     10 C16         10.3490     8.2350    43.7540 ca         1 NXI      -0.027000
     11 O4           5.2710     9.3090    43.8300 o          1 NXI      -0.607100
     12 N5           7.0610     7.9920    43.3510 ns         1 NXI      -0.509900
     13 C9          10.5850     5.7340    45.0970 ca         1 NXI      -0.133000
     14 N11         12.9520     5.8760    44.2270 na         1 NXI      -0.061400
     15 N13         13.7100     6.7760    43.4620 nd         1 NXI      -0.516100
     16 H17          3.4920     6.4530    41.4090 hc         1 NXI       0.042367
     17 H18          4.3990     6.0350    42.8790 hc         1 NXI       0.042367
     18 H1           3.2150     7.3620    42.9100 hc         1 NXI       0.042367
     19 H19          5.8140     7.3310    41.2670 hc         1 NXI       0.054200
     20 H27          4.6280     8.6750    41.3220 hc         1 NXI       0.054200
     21 H21          8.0880     9.5100    44.3620 h1         1 NXI       0.062200
     22 H22          7.3930     8.2480    45.4020 h1         1 NXI       0.062200
     23 H23          8.5040     6.0140    45.6270 ha         1 NXI       0.130000
     24 H25         13.1960     8.5960    42.5980 h4         1 NXI       0.049800
     25 H26         10.2800     9.1880    43.2320 ha         1 NXI       0.115000
     26 H20          7.4200     7.2930    42.7120 hn         1 NXI       0.310500
     27 H24         10.6880     4.7780    45.6050 ha         1 NXI       0.122000
     28 H12         13.3510     5.0100    44.5870 hn         1 NXI       0.376000
@<TRIPOS>BOND
     1     1     2 1   
     2     1    16 1   
     3     1    17 1   
     4     1    18 1   
     5     2     3 1   
     6     2    19 1   
     7     2    20 1   
     8     3    11 2   
     9     3    12 1   
    10     4     5 1   
    11     4    12 1   
    12     4    21 1   
    13     4    22 1   
    14     5     6 ar  
    15     5    10 ar  
    16     6    13 ar  
    17     6    23 1   
    18     7     9 ar  
    19     7    13 ar  
    20     7    14 1   
    21     8     9 1   
    22     8    15 2   
    23     8    24 1   
    24     9    10 ar  
    25    10    25 1   
    26    12    26 1   
    27    13    27 1   
    28    14    15 1   
    29    14    28 1   
@<TRIPOS>SUBSTRUCTURE
     1 NXI         1 TEMP              0 ****  ****    0 ROOT
