@<TRIPOS>MOLECULE
NXJ
   31    32     1     0     0
SMALL
No Charge or Current Charge


@<TRIPOS>ATOM
      1 N1          -3.7010     0.0950     1.1520 nb         1 NXJ      -0.659000
      2 C4           3.0840    -0.0410     0.2190 cx         1 NXJ      -0.086000
      3 C5           4.1460     0.4300    -0.7710 c3         1 NXJ      -0.066600
      4 C6           2.6490    -1.4760    -0.0850 c3         1 NXJ      -0.066600
      5 C7          -1.6230     0.3230    -0.1230 ca         1 NXJ      -0.097000
      6 C8          -2.1440    -0.5340    -1.1170 ca         1 NXJ      -0.074000
      7 C10         -4.2040    -0.6610     0.1520 ca         1 NXJ       0.334900
      8 N           -0.2170     0.6810    -0.1530 n          1 NXJ      -0.247400
      9 C            0.3500     1.0920    -1.4630 c3         1 NXJ       0.100300
     10 O            0.2490     0.2100     2.0800 o          1 NXJ      -0.582100
     11 C1           0.6420     0.5900     0.9830 c          1 NXJ       0.643100
     12 C11         -2.4290     0.5450     1.0250 ca         1 NXJ       0.348900
     13 C2           2.0980     0.9800     0.7670 cx         1 NXJ      -0.230700
     14 C3           3.1730     0.3930     1.6650 cx         1 NXJ      -0.085400
     15 C9          -3.4590    -1.0070    -0.9850 ca         1 NXJ      -0.159000
     16 H1           5.0330    -0.2150    -0.7340 hc         1 NXJ       0.041033
     17 H2           3.7600     0.4150    -1.7980 hc         1 NXJ       0.041033
     18 H3           4.4730     1.4550    -0.5550 hc         1 NXJ       0.041033
     19 H4           1.9080    -1.8430     0.6360 hc         1 NXJ       0.041033
     20 H5           2.2070    -1.5550    -1.0850 hc         1 NXJ       0.041033
     21 H6           3.5060    -2.1590    -0.0460 hc         1 NXJ       0.041033
     22 H7          -1.5470    -0.8330    -1.9750 ha         1 NXJ       0.123000
     23 H8          -5.2260    -1.0160     0.2770 h4         1 NXJ       0.020100
     24 H9           0.9070     2.0310    -1.3620 h1         1 NXJ       0.041367
     25 H10          1.0140     0.3100    -1.8490 h1         1 NXJ       0.041367
     26 H11         -0.4550     1.2610    -2.1900 h1         1 NXJ       0.041367
     27 H12         -2.0640     1.1470     1.8560 h4         1 NXJ       0.026100
     28 H13          2.2450     2.0220     0.4960 hc         1 NXJ       0.091700
     29 H14          2.8770    -0.3220     2.4300 hc         1 NXJ       0.084200
     30 H15          3.9990     1.0380     1.9540 hc         1 NXJ       0.084200
     31 H16         -3.8970    -1.6470    -1.7460 ha         1 NXJ       0.124000
@<TRIPOS>BOND
     1     1     7 ar  
     2     1    12 ar  
     3     2     3 1   
     4     2     4 1   
     5     2    13 1   
     6     2    14 1   
     7     3    16 1   
     8     3    17 1   
     9     3    18 1   
    10     4    19 1   
    11     4    20 1   
    12     4    21 1   
    13     5     6 ar  
    14     5     8 1   
    15     5    12 ar  
    16     6    15 ar  
    17     6    22 1   
    18     7    15 ar  
    19     7    23 1   
    20     8     9 1   
    21     8    11 1   
    22     9    24 1   
    23     9    25 1   
    24     9    26 1   
    25    10    11 2   
    26    11    13 1   
    27    12    27 1   
    28    13    14 1   
    29    13    28 1   
    30    14    29 1   
    31    14    30 1   
    32    15    31 1   
@<TRIPOS>SUBSTRUCTURE
     1 NXJ         1 TEMP              0 ****  ****    0 ROOT
