@<TRIPOS>MOLECULE
NXJ
   31    32     1     0     0
SMALL
bcc


@<TRIPOS>ATOM
      1 N1          -3.6760     0.6120     0.9350 nb         1 NXJ      -0.659000
      2 C4           3.1550    -0.1470     0.2120 cx         1 NXJ      -0.086000
      3 C5           4.1980     0.5060    -0.6630 c3         1 NXJ      -0.066600
      4 C6           2.8420    -1.5750    -0.1680 c3         1 NXJ      -0.066600
      5 C7          -1.5660     0.2050    -0.1080 ca         1 NXJ      -0.069700
      6 C8          -2.1250    -0.7910    -0.8940 ca         1 NXJ      -0.092000
      7 C10         -4.2060    -0.3440     0.1790 ca         1 NXJ       0.400200
      8 N           -0.1980     0.5520    -0.2230 n          1 NXJ      -0.407000
      9 C            0.1980     1.2980    -1.4060 c3         1 NXJ       0.100300
     10 O            0.2570    -0.4820     1.7220 o          1 NXJ      -0.582100
     11 C1           0.6390     0.2190     0.7980 c          1 NXJ       0.710100
     12 C11         -2.3880     0.8800     0.7870 ca         1 NXJ       0.414200
     13 C2           2.0290     0.7470     0.7000 cx         1 NXJ      -0.230700
     14 C3           3.0790     0.2530     1.6480 cx         1 NXJ      -0.085400
     15 C9          -3.4760    -1.0680    -0.7510 ca         1 NXJ      -0.242300
     16 H1           5.1350    -0.0530    -0.6300 hc         1 NXJ       0.041033
     17 H2           3.8710     0.5380    -1.7050 hc         1 NXJ       0.041033
     18 H3           4.4080     1.5290    -0.3480 hc         1 NXJ       0.041033
     19 H4           2.0950    -2.0270     0.4840 hc         1 NXJ       0.041033
     20 H5           2.4740    -1.6350    -1.1940 hc         1 NXJ       0.041033
     21 H6           3.7430    -2.1870    -0.1050 hc         1 NXJ       0.041033
     22 H7          -1.5160    -1.3390    -1.6010 ha         1 NXJ       0.141000
     23 H8          -5.2630    -0.5410     0.3170 h4         1 NXJ       0.020100
     24 H9          -0.0170     2.3640    -1.3050 h1         1 NXJ       0.041367
     25 H10          1.2570     1.1700    -1.6090 h1         1 NXJ       0.041367
     26 H11         -0.3460     0.9200    -2.2700 h1         1 NXJ       0.041367
     27 H12         -1.9730     1.6700     1.4060 h4         1 NXJ       0.026100
     28 H13          2.1030     1.7860     0.3960 hc         1 NXJ       0.091700
     29 H14          2.7870    -0.4940     2.3760 hc         1 NXJ       0.084200
     30 H15          3.7880     0.9830     2.0170 hc         1 NXJ       0.084200
     31 H16         -3.9540    -1.8370    -1.3410 ha         1 NXJ       0.142000
@<TRIPOS>BOND
     1     1     7 ar  
     2     1    12 ar  
     3     2     3 1   
     4     2     4 1   
     5     2    13 1   
     6     2    14 1   
     7     3    16 1   
     8     3    17 1   
     9     3    18 1   
    10     4    19 1   
    11     4    20 1   
    12     4    21 1   
    13     5     6 ar  
    14     5     8 1   
    15     5    12 ar  
    16     6    15 ar  
    17     6    22 1   
    18     7    15 ar  
    19     7    23 1   
    20     8     9 1   
    21     8    11 1   
    22     9    24 1   
    23     9    25 1   
    24     9    26 1   
    25    10    11 2   
    26    11    13 1   
    27    12    27 1   
    28    13    14 1   
    29    13    28 1   
    30    14    29 1   
    31    14    30 1   
    32    15    31 1   
@<TRIPOS>SUBSTRUCTURE
     1 NXJ         1 TEMP              0 ****  ****    0 ROOT
