@<TRIPOS>MOLECULE
NXL
   29    29     1     0     0
SMALL
abcg2


@<TRIPOS>ATOM
      1 OAC        -12.1480   -11.1930    -4.3310 o          1 NXL      -0.627100
      2 CAN        -13.1710   -11.2620    -5.0090 c          1 NXL       0.628900
      3 N          -14.3900   -11.5900    -4.5570 n          1 NXL      -0.377800
      4 CAJ        -15.5470   -11.6340    -5.4450 c6         1 NXL       0.095000
      5 CA         -14.6200   -11.8470    -3.1460 c6         1 NXL       0.025700
      6 C          -14.8960   -13.3450    -2.9150 c          1 NXL       0.586100
      7 O          -14.7480   -14.1790    -3.8030 o          1 NXL      -0.622100
      8 NAA        -15.2690   -13.6780    -1.6670 nt         1 NXL      -0.614000
      9 CB         -15.7040   -10.8930    -2.6220 c6         1 NXL      -0.074400
     10 CAH        -16.9670   -10.9380    -3.4810 c6         1 NXL      -0.054400
     11 CAO        -16.6950   -10.7310    -4.9740 c6         1 NXL       0.135500
     12 NAK        -16.5830    -9.3170    -5.3450 n7         1 NXL      -0.539900
     13 OAL        -15.2980    -8.8010    -4.9080 os         1 NXL      -0.431000
     14 SAR        -15.4360    -7.2820    -4.2810 s6         1 NXL       1.525300
     15 OAD        -16.2930    -7.3830    -3.1080 o          1 NXL      -0.714533
     16 OAE        -14.0360    -7.0200    -3.9840 o          1 NXL      -0.714533
     17 OAG        -15.9970    -6.4640    -5.3490 o          1 NXL      -0.714533
     18 H1         -13.1650   -11.0440    -6.0870 h5         1 NXL       0.011200
     19 H2         -15.9130   -12.6620    -5.4880 h1         1 NXL       0.046700
     20 H3         -15.2220   -11.3490    -6.4450 h1         1 NXL       0.046700
     21 H4         -13.6800   -11.6370    -2.6320 h1         1 NXL       0.099700
     22 H5         -15.4010   -14.6500    -1.4370 hn         1 NXL       0.308500
     23 H6         -15.3420   -13.0010    -0.9260 hn         1 NXL       0.308500
     24 H7         -15.2870    -9.8880    -2.6220 hc         1 NXL       0.067200
     25 H8         -15.9510   -11.1320    -1.5870 hc         1 NXL       0.067200
     26 H9         -17.6790   -10.1850    -3.1400 hc         1 NXL       0.048200
     27 H10        -17.4480   -11.9130    -3.3630 hc         1 NXL       0.048200
     28 H11        -17.5850   -11.0440    -5.5290 h1         1 NXL       0.042700
     29 H12        -16.5130    -9.2590    -6.3580 hn         1 NXL       0.396000
@<TRIPOS>BOND
     1     1     2 2   
     2     2     3 1   
     3     2    18 1   
     4     3     4 1   
     5     3     5 1   
     6     4    11 1   
     7     4    19 1   
     8     4    20 1   
     9     5     6 1   
    10     5     9 1   
    11     5    21 1   
    12     6     7 2   
    13     6     8 1   
    14     8    22 1   
    15     8    23 1   
    16     9    10 1   
    17     9    24 1   
    18     9    25 1   
    19    10    11 1   
    20    10    26 1   
    21    10    27 1   
    22    11    12 1   
    23    11    28 1   
    24    12    13 1   
    25    12    29 1   
    26    13    14 1   
    27    14    15 1   
    28    14    16 1   
    29    14    17 1   
@<TRIPOS>SUBSTRUCTURE
     1 NXL         1 TEMP              0 ****  ****    0 ROOT
