@<TRIPOS>MOLECULE
NXL
   29    29     1     0     0
SMALL
No Charge or Current Charge


@<TRIPOS>ATOM
      1 OAC        -12.1130   -10.9770    -4.4380 o          1 NXL      -0.627100
      2 CAN        -13.1280   -11.1050    -5.1170 c          1 NXL       0.628900
      3 N          -14.3290   -11.6290    -4.6100 n          1 NXL      -0.377800
      4 CAJ        -15.5560   -11.7060    -5.4440 c6         1 NXL       0.095000
      5 CA         -14.5440   -11.9330    -3.1620 c6         1 NXL       0.025700
      6 C          -14.8240   -13.4420    -2.8630 c          1 NXL       0.586100
      7 O          -14.3560   -14.3480    -3.5350 o          1 NXL      -0.622100
      8 NAA        -15.5510   -13.7520    -1.7640 nt         1 NXL      -0.614000
      9 CB         -15.5830   -10.9280    -2.5790 c6         1 NXL      -0.074400
     10 CAH        -16.9120   -10.9540    -3.3840 c6         1 NXL      -0.054400
     11 CAO        -16.7070   -10.7900    -4.9220 c6         1 NXL       0.135500
     12 NAK        -16.5910    -9.3700    -5.3640 n7         1 NXL      -0.539900
     13 OAL        -15.3160    -8.7120    -4.9090 os         1 NXL      -0.431000
     14 SAR        -15.4000    -7.1440    -4.3140 s6         1 NXL       1.525300
     15 OAD        -16.2590    -7.2410    -3.1210 o          1 NXL      -0.714533
     16 OAE        -13.9990    -6.7990    -4.0200 o          1 NXL      -0.714533
     17 OAG        -15.9930    -6.3660    -5.4160 o          1 NXL      -0.714533
     18 H1         -13.1900   -10.8330    -6.1880 h5         1 NXL       0.011200
     19 H2         -15.9070   -12.7480    -5.4410 h1         1 NXL       0.046700
     20 H3         -15.3240   -11.4550    -6.4890 h1         1 NXL       0.046700
     21 H4         -13.6070   -11.7500    -2.6190 h1         1 NXL       0.099700
     22 H5         -15.7170   -14.7230    -1.5430 hn         1 NXL       0.308500
     23 H6         -15.9250   -13.0240    -1.1750 hn         1 NXL       0.308500
     24 H7         -15.1550    -9.9180    -2.6140 hc         1 NXL       0.067200
     25 H8         -15.7740   -11.1170    -1.5140 hc         1 NXL       0.067200
     26 H9         -17.5940   -10.1780    -3.0100 hc         1 NXL       0.048200
     27 H10        -17.4180   -11.9110    -3.2000 hc         1 NXL       0.048200
     28 H11        -17.6310   -11.1590    -5.3930 h1         1 NXL       0.042700
     29 H12        -16.5830    -9.3070    -6.3920 hn         1 NXL       0.396000
@<TRIPOS>BOND
     1     1     2 2   
     2     2     3 1   
     3     2    18 1   
     4     3     4 1   
     5     3     5 1   
     6     4    11 1   
     7     4    19 1   
     8     4    20 1   
     9     5     6 1   
    10     5     9 1   
    11     5    21 1   
    12     6     7 2   
    13     6     8 1   
    14     8    22 1   
    15     8    23 1   
    16     9    10 1   
    17     9    24 1   
    18     9    25 1   
    19    10    11 1   
    20    10    26 1   
    21    10    27 1   
    22    11    12 1   
    23    11    28 1   
    24    12    13 1   
    25    12    29 1   
    26    13    14 1   
    27    14    15 1   
    28    14    16 1   
    29    14    17 1   
@<TRIPOS>SUBSTRUCTURE
     1 NXL         1 TEMP              0 ****  ****    0 ROOT
