@<TRIPOS>MOLECULE
NXM
   32    34     1     0     0
SMALL
No Charge or Current Charge


@<TRIPOS>ATOM
      1 N1           1.5200    -0.0190     0.5940 nc         1 NXM      -0.720000
      2 C4          -4.5390    -0.4010    -0.1930 c6         1 NXM       0.149800
      3 C5          -3.2740    -1.1380     0.3120 c6         1 NXM      -0.113400
      4 C6           0.5990    -0.5910    -0.1460 cd         1 NXM       0.489300
      5 C7           2.4620     0.2980    -0.3390 cc         1 NXM       0.592300
      6 C8           3.6950     0.9870     0.0840 cx         1 NXM      -0.182000
      7 C10          4.6280     0.3330     1.0840 cx         1 NXM      -0.108400
      8 N           -4.5220     1.0230     0.2200 n7         1 NXM      -0.844400
      9 C           -0.7030    -1.1480     0.3650 c3         1 NXM      -0.112700
     10 O            0.9120    -0.6470    -1.4680 os         1 NXM      -0.092700
     11 C1          -1.9780    -0.4320    -0.1730 c6         1 NXM      -0.057700
     12 C2          -2.0240     1.0700     0.2250 c6         1 NXM      -0.113400
     13 C3          -3.3250     1.7450    -0.2750 c6         1 NXM       0.149800
     14 C9           5.0490     0.4690    -0.3610 cx         1 NXM      -0.108400
     15 N2           2.1780    -0.0350    -1.5880 nd         1 NXM      -0.384300
     16 H2          -5.4370    -0.8940     0.2090 h1         1 NXM       0.054450
     17 H3          -3.2900    -1.1830     1.4100 hc         1 NXM       0.047200
     18 H4          -3.2930    -2.1770    -0.0430 hc         1 NXM       0.047200
     19 H5           3.5690     2.0650     0.1480 hc         1 NXM       0.105700
     20 H6           5.1150     0.9720     1.8170 hc         1 NXM       0.080950
     21 H7           4.3760    -0.6620     1.4450 hc         1 NXM       0.080950
     22 H8          -4.5130     1.0580     1.2470 hn         1 NXM       0.403000
     23 H10         -0.7430    -2.2110     0.1000 hc         1 NXM       0.076200
     24 H11         -0.7000    -1.1190     1.4610 hc         1 NXM       0.076200
     25 H12         -1.9400    -0.5010    -1.2710 hc         1 NXM       0.063700
     26 H13         -1.9540     1.1720     1.3170 hc         1 NXM       0.047200
     27 H14         -1.1590     1.6030    -0.1940 hc         1 NXM       0.047200
     28 H15         -3.3310     1.7590    -1.3760 h1         1 NXM       0.054450
     29 H16         -3.3530     2.7900     0.0680 h1         1 NXM       0.054450
     30 H17          5.0810    -0.4360    -0.9640 hc         1 NXM       0.080950
     31 H18          5.8190     1.1990    -0.5980 hc         1 NXM       0.080950
     32 H1          -4.5890    -0.4670    -1.2910 h1         1 NXM       0.054450
@<TRIPOS>BOND
     1     1     4 2   
     2     1     5 1   
     3     2     3 1   
     4     2     8 1   
     5     2    16 1   
     6     2    32 1   
     7     3    11 1   
     8     3    17 1   
     9     3    18 1   
    10     4     9 1   
    11     4    10 1   
    12     5     6 1   
    13     5    15 2   
    14     6     7 1   
    15     6    14 1   
    16     6    19 1   
    17     7    14 1   
    18     7    20 1   
    19     7    21 1   
    20     8    13 1   
    21     8    22 1   
    22     9    11 1   
    23     9    23 1   
    24     9    24 1   
    25    10    15 1   
    26    11    12 1   
    27    11    25 1   
    28    12    13 1   
    29    12    26 1   
    30    12    27 1   
    31    13    28 1   
    32    13    29 1   
    33    14    30 1   
    34    14    31 1   
@<TRIPOS>SUBSTRUCTURE
     1 NXM         1 TEMP              0 ****  ****    0 ROOT
