@<TRIPOS>MOLECULE
NXM
   32    34     1     0     0
SMALL
abcg2


@<TRIPOS>ATOM
      1 N1           1.3740    -0.0640     1.0450 nc         1 NXM      -0.720000
      2 C4          -4.4620    -0.3070    -0.3170 c6         1 NXM       0.149800
      3 C5          -3.3270    -1.0190     0.4160 c6         1 NXM      -0.113400
      4 C6           0.5090    -0.7400     0.3630 cd         1 NXM       0.489300
      5 C7           2.4170     0.0670     0.1700 cc         1 NXM       0.592300
      6 C8           3.6620     0.7540     0.5290 cx         1 NXM      -0.182000
      7 C10          4.9790     0.0390     0.3440 cx         1 NXM      -0.108400
      8 N           -4.4100     1.1430    -0.2160 n7         1 NXM      -0.844400
      9 C           -0.8490    -1.1790     0.7620 c3         1 NXM      -0.112700
     10 O            0.9450    -1.0300    -0.8550 os         1 NXM      -0.092700
     11 C1          -1.9650    -0.4970    -0.0390 c6         1 NXM      -0.057700
     12 C2          -1.9280     1.0250     0.0890 c6         1 NXM      -0.113400
     13 C3          -3.1160     1.6610    -0.6300 c6         1 NXM       0.149800
     14 C9           4.6280     1.1870    -0.5350 cx         1 NXM      -0.108400
     15 N2           2.2000    -0.4900    -0.9820 nd         1 NXM      -0.384300
     16 H2          -5.4260    -0.6510     0.0600 h1         1 NXM       0.054450
     17 H3          -3.4330    -0.8580     1.4960 hc         1 NXM       0.047200
     18 H4          -3.3940    -2.0980     0.2510 hc         1 NXM       0.047200
     19 H5           3.5680     1.3840     1.4050 hc         1 NXM       0.105700
     20 H6           5.7290     0.1790     1.1110 hc         1 NXM       0.080950
     21 H7           4.9420    -0.9570    -0.0770 hc         1 NXM       0.080950
     22 H8          -4.5780     1.4110     0.7470 hn         1 NXM       0.403000
     23 H10         -0.9240    -2.2640     0.6410 hc         1 NXM       0.076200
     24 H11         -0.9650    -0.9640     1.8260 hc         1 NXM       0.076200
     25 H12         -1.8380    -0.7580    -1.0970 hc         1 NXM       0.063700
     26 H13         -1.9540     1.3000     1.1510 hc         1 NXM       0.047200
     27 H14         -0.9980     1.4330    -0.3170 hc         1 NXM       0.047200
     28 H15         -3.0140     1.4930    -1.7080 h1         1 NXM       0.054450
     29 H16         -3.1080     2.7430    -0.4830 h1         1 NXM       0.054450
     30 H17          4.3640     0.9830    -1.5650 hc         1 NXM       0.080950
     31 H18          5.1340     2.1300    -0.3780 hc         1 NXM       0.080950
     32 H1          -4.4280    -0.5740    -1.3790 h1         1 NXM       0.054450
@<TRIPOS>BOND
     1     1     4 2   
     2     1     5 1   
     3     2     3 1   
     4     2     8 1   
     5     2    16 1   
     6     2    32 1   
     7     3    11 1   
     8     3    17 1   
     9     3    18 1   
    10     4     9 1   
    11     4    10 1   
    12     5     6 1   
    13     5    15 2   
    14     6     7 1   
    15     6    14 1   
    16     6    19 1   
    17     7    14 1   
    18     7    20 1   
    19     7    21 1   
    20     8    13 1   
    21     8    22 1   
    22     9    11 1   
    23     9    23 1   
    24     9    24 1   
    25    10    15 1   
    26    11    12 1   
    27    11    25 1   
    28    12    13 1   
    29    12    26 1   
    30    12    27 1   
    31    13    28 1   
    32    13    29 1   
    33    14    30 1   
    34    14    31 1   
@<TRIPOS>SUBSTRUCTURE
     1 NXM         1 TEMP              0 ****  ****    0 ROOT
