@<TRIPOS>MOLECULE
NXN
   27    27     1     0     0
SMALL
No Charge or Current Charge


@<TRIPOS>ATOM
      1 O17         -1.5840    -0.0050     2.2560 o          1 NXN      -0.551100
      2 C12         -0.3610    -0.0180     2.1760 c          1 NXN       0.600100
      3 N1           0.4340    -0.0340     3.3040 ns         1 NXN      -0.520900
      4 C14         -0.0870    -0.0360     4.6770 c3         1 NXN       0.118000
      5 C15          1.0380    -0.0170     5.7290 c3         1 NXN       0.052600
      6 S19          0.4170    -0.0170     7.4760 sh         1 NXN      -0.423800
      7 C9           0.4140    -0.0190     0.8380 c3         1 NXN       0.072600
      8 O18         -0.4720    -0.0020    -0.3040 os         1 NXN      -0.288100
      9 C10         -0.0050     0.0000    -1.6060 ca         1 NXN       0.148100
     10 C6           1.3780    -0.0140    -1.9060 ca         1 NXN      -0.191000
     11 C5           1.8080    -0.0110    -3.2470 ca         1 NXN      -0.064000
     12 C8          -0.9420     0.0180    -2.6630 ca         1 NXN       0.089000
     13 Cl4         -2.6750     0.0360    -2.3290 cl         1 NXN      -0.159000
     14 C11         -0.5060     0.0210    -3.9990 ca         1 NXN      -0.062000
     15 C16          0.8670     0.0070    -4.2890 ca         1 NXN       0.088000
     16 Cl3          1.4110     0.0110    -5.9620 cl         1 NXN      -0.193000
     17 H1           1.4380    -0.0450     3.1620 hn         1 NXN       0.311500
     18 H141        -0.7040    -0.9330     4.8220 h1         1 NXN       0.069700
     19 H142        -0.7280     0.8450     4.8160 h1         1 NXN       0.069700
     20 H151         1.6540     0.8800     5.5830 h1         1 NXN       0.061700
     21 H152         1.6780    -0.8970     5.5910 h1         1 NXN       0.061700
     22 H19          1.6380     0.0020     8.0690 hs         1 NXN       0.212800
     23 H91          1.0660     0.8620     0.8350 h1         1 NXN       0.050200
     24 H92          1.0460    -0.9160     0.8240 h1         1 NXN       0.050200
     25 H6           2.1280    -0.0280    -1.1210 ha         1 NXN       0.119000
     26 H5           2.8710    -0.0220    -3.4780 ha         1 NXN       0.131000
     27 H11         -1.2320     0.0350    -4.8080 ha         1 NXN       0.146000
@<TRIPOS>BOND
     1     1     2 2   
     2     2     3 1   
     3     2     7 1   
     4     3     4 1   
     5     3    17 1   
     6     4     5 1   
     7     4    18 1   
     8     4    19 1   
     9     5     6 1   
    10     5    20 1   
    11     5    21 1   
    12     6    22 1   
    13     7     8 1   
    14     7    23 1   
    15     7    24 1   
    16     8     9 1   
    17     9    10 ar  
    18     9    12 ar  
    19    10    11 ar  
    20    10    25 1   
    21    11    15 ar  
    22    11    26 1   
    23    12    13 1   
    24    12    14 ar  
    25    14    15 ar  
    26    14    27 1   
    27    15    16 1   
@<TRIPOS>SUBSTRUCTURE
     1 NXN         1 TEMP              0 ****  ****    0 ROOT
