@<TRIPOS>MOLECULE
NXN
   27    27     1     0     0
SMALL
abcg2


@<TRIPOS>ATOM
      1 O17         -1.5130     0.0140     2.1560 o          1 NXN      -0.551100
      2 C12         -0.2970    -0.0080     2.1270 c          1 NXN       0.600100
      3 N1           0.4720    -0.0280     3.2240 ns         1 NXN      -0.520900
      4 C14         -0.0910    -0.0370     4.5590 c3         1 NXN       0.118000
      5 C15          1.0290    -0.0150     5.5840 c3         1 NXN       0.052600
      6 S19          0.2820    -0.0200     7.2460 sh         1 NXN      -0.423800
      7 C9           0.4980    -0.0150     0.8290 c3         1 NXN       0.072600
      8 O18         -0.4230    -0.0010    -0.2300 os         1 NXN      -0.288100
      9 C10          0.0460     0.0000    -1.4840 ca         1 NXN       0.148100
     10 C6           1.3910    -0.0130    -1.8380 ca         1 NXN      -0.191000
     11 C5           1.7750    -0.0100    -3.1720 ca         1 NXN      -0.064000
     12 C8          -0.9070     0.0150    -2.5090 ca         1 NXN       0.089000
     13 CL4         -2.5800     0.0310    -2.0910 cl         1 NXN      -0.159000
     14 C11         -0.5370     0.0170    -3.8400 ca         1 NXN      -0.062000
     15 C16          0.8120     0.0040    -4.1630 ca         1 NXN       0.088000
     16 CL3          1.2830     0.0070    -5.8290 cl         1 NXN      -0.193000
     17 H1           1.4750    -0.0660     3.1250 hn         1 NXN       0.311500
     18 H141        -0.7090    -0.9280     4.7000 h1         1 NXN       0.069700
     19 H142        -0.7390     0.8320     4.6940 h1         1 NXN       0.069700
     20 H151         1.6410     0.8790     5.4630 h1         1 NXN       0.061700
     21 H152         1.6670    -0.8920     5.4720 h1         1 NXN       0.061700
     22 H19          1.4250    -0.0030     7.9390 hs         1 NXN       0.212800
     23 H91          1.1560     0.8620     0.8030 h1         1 NXN       0.050200
     24 H92          1.1340    -0.9070     0.7980 h1         1 NXN       0.050200
     25 H6           2.1660    -0.0240    -1.0850 ha         1 NXN       0.119000
     26 H5           2.8270    -0.0200    -3.4230 ha         1 NXN       0.131000
     27 H11         -1.2940     0.0290    -4.6110 ha         1 NXN       0.146000
@<TRIPOS>BOND
     1     1     2 2   
     2     2     3 1   
     3     2     7 1   
     4     3     4 1   
     5     3    17 1   
     6     4     5 1   
     7     4    18 1   
     8     4    19 1   
     9     5     6 1   
    10     5    20 1   
    11     5    21 1   
    12     6    22 1   
    13     7     8 1   
    14     7    23 1   
    15     7    24 1   
    16     8     9 1   
    17     9    10 ar  
    18     9    12 ar  
    19    10    11 ar  
    20    10    25 1   
    21    11    15 ar  
    22    11    26 1   
    23    12    13 1   
    24    12    14 ar  
    25    14    15 ar  
    26    14    27 1   
    27    15    16 1   
@<TRIPOS>SUBSTRUCTURE
     1 NXN         1 TEMP              0 ****  ****    0 ROOT
