@<TRIPOS>MOLECULE
NXO
   39    42     1     0     0
SMALL
No Charge or Current Charge


@<TRIPOS>ATOM
      1 C11         17.4490   -19.2630   -20.5730 cp         1 NXO      -0.028000
      2 C12         17.8910   -19.4520   -19.2420 ca         1 NXO      -0.088500
      3 C13         16.9770   -19.5280   -18.1770 ca         1 NXO      -0.093500
      4 C01         12.4910   -20.4050   -16.3740 ca         1 NXO      -0.127000
      5 C02         13.4290   -20.3010   -17.4170 ca         1 NXO      -0.076000
      6 C03         14.5990   -19.5130   -17.2760 cp         1 NXO      -0.075000
      7 C04         14.7880   -18.8240   -16.0460 ca         1 NXO       0.182000
      8 C05         13.8490   -18.9280   -15.0060 ca         1 NXO      -0.154000
      9 C06         12.7010   -19.7200   -15.1670 ca         1 NXO      -0.081000
     10 C08         15.5820   -19.4220   -18.4010 cp         1 NXO      -0.026000
     11 C09         15.1400   -19.2500   -19.7350 ca         1 NXO      -0.093500
     12 C10         16.0550   -19.1720   -20.7990 ca         1 NXO      -0.088500
     13 C14         18.4320   -19.1980   -21.7020 cp         1 NXO      -0.021000
     14 C15         19.4570   -20.1720   -21.7860 ca         1 NXO      -0.074000
     15 C16         20.3950   -20.1490   -22.8280 ca         1 NXO      -0.119000
     16 C17         20.3350   -19.1490   -23.8080 ca         1 NXO      -0.066000
     17 C18         19.3380   -18.1560   -23.7530 ca         1 NXO      -0.193300
     18 C19         18.3850   -18.1860   -22.7040 ca         1 NXO       0.161100
     19 C25         19.3160   -17.0910   -24.8480 c6         1 NXO       0.232100
     20 F07         15.8630   -18.0260   -15.8590 f          1 NXO      -0.176000
     21 N24         18.5950   -15.8960   -24.4150 n7         1 NXO      -0.884300
     22 O20         17.4200   -17.2120   -22.5620 os         1 NXO      -0.457800
     23 S21         17.0980   -16.1770   -23.7870 s6         1 NXO       1.403800
     24 H1          18.9550   -19.5340   -19.0330 ha         1 NXO       0.117500
     25 H2          17.3530   -19.6840   -17.1690 ha         1 NXO       0.119500
     26 H3          11.6030   -21.0190   -16.5030 ha         1 NXO       0.119000
     27 H4          13.2530   -20.8470   -18.3410 ha         1 NXO       0.119000
     28 H5          14.0120   -18.3880   -14.0760 ha         1 NXO       0.132000
     29 H6          11.9740   -19.8000   -14.3610 ha         1 NXO       0.118000
     30 H7          14.0770   -19.1680   -19.9450 ha         1 NXO       0.119500
     31 H8          15.6790   -19.0470   -21.8120 ha         1 NXO       0.117500
     32 H9          19.5140   -20.9600   -21.0380 ha         1 NXO       0.127000
     33 H10         21.1700   -20.9110   -22.8770 ha         1 NXO       0.124000
     34 H11         21.0700   -19.1450   -24.6120 ha         1 NXO       0.120000
     35 H12         18.8440   -17.5120   -25.7500 h1         1 NXO       0.086200
     36 H13         20.3470   -16.8200   -25.1220 h1         1 NXO       0.086200
     37 H14         19.0340   -15.5600   -23.5630 hn         1 NXO       0.491000
     38 O22         16.6370   -14.9000   -23.2390 o          1 NXO      -0.527000
     39 O23         16.3260   -16.8640   -24.8270 o          1 NXO      -0.527000
@<TRIPOS>BOND
     1     1     2 ar  
     2     1    12 ar  
     3     1    13 1   
     4     2     3 ar  
     5     2    24 1   
     6     3    10 ar  
     7     3    25 1   
     8     4     5 ar  
     9     4     9 ar  
    10     4    26 1   
    11     5     6 ar  
    12     5    27 1   
    13     6     7 ar  
    14     6    10 1   
    15     7     8 ar  
    16     7    20 1   
    17     8     9 ar  
    18     8    28 1   
    19     9    29 1   
    20    10    11 ar  
    21    11    12 ar  
    22    11    30 1   
    23    12    31 1   
    24    13    14 ar  
    25    13    18 ar  
    26    14    15 ar  
    27    14    32 1   
    28    15    16 ar  
    29    15    33 1   
    30    16    17 ar  
    31    16    34 1   
    32    17    18 ar  
    33    17    19 1   
    34    18    22 1   
    35    19    21 1   
    36    19    35 1   
    37    19    36 1   
    38    21    23 1   
    39    21    37 1   
    40    22    23 1   
    41    23    38 2   
    42    23    39 2   
@<TRIPOS>SUBSTRUCTURE
     1 NXO         1 TEMP              0 ****  ****    0 ROOT
