@<TRIPOS>MOLECULE
NXO
   39    42     1     0     0
SMALL
abcg2


@<TRIPOS>ATOM
      1 C11         17.4460   -19.3490   -20.5920 cp         1 NXO      -0.028000
      2 C12         17.8920   -19.5230   -19.2830 ca         1 NXO      -0.088500
      3 C13         16.9990   -19.5820   -18.2260 ca         1 NXO      -0.093500
      4 C01         12.5520   -20.3310   -16.4250 ca         1 NXO      -0.127000
      5 C02         13.4930   -20.2990   -17.4420 ca         1 NXO      -0.076000
      6 C03         14.6480   -19.5190   -17.3450 cp         1 NXO      -0.075000
      7 C04         14.8020   -18.7720   -16.1820 ca         1 NXO       0.182000
      8 C05         13.8800   -18.7840   -15.1540 ca         1 NXO      -0.154000
      9 C06         12.7460   -19.5730   -15.2790 ca         1 NXO      -0.081000
     10 C08         15.6270   -19.4690   -18.4480 cp         1 NXO      -0.026000
     11 C09         15.1810   -19.3210   -19.7620 ca         1 NXO      -0.093500
     12 C10         16.0730   -19.2630   -20.8180 ca         1 NXO      -0.088500
     13 C14         18.4240   -19.2800   -21.6980 cp         1 NXO      -0.021000
     14 C15         19.4050   -20.2550   -21.8440 ca         1 NXO      -0.074000
     15 C16         20.3300   -20.1880   -22.8760 ca         1 NXO      -0.119000
     16 C17         20.2860   -19.1380   -23.7750 ca         1 NXO      -0.066000
     17 C18         19.3320   -18.1330   -23.6540 ca         1 NXO      -0.193300
     18 C19         18.4170   -18.2250   -22.6110 ca         1 NXO       0.161100
     19 C25         19.2960   -17.0140   -24.6680 c6         1 NXO       0.232100
     20 F07         15.8810   -17.9840   -16.0540 f          1 NXO      -0.176000
     21 N24         18.4870   -15.8640   -24.2540 n7         1 NXO      -0.884300
     22 O20         17.4780   -17.2340   -22.3780 os         1 NXO      -0.457800
     23 S21         17.0460   -16.2870   -23.6220 s6         1 NXO       1.403800
     24 H1          18.9540   -19.5990   -19.0840 ha         1 NXO       0.117500
     25 H2          17.3820   -19.7310   -17.2260 ha         1 NXO       0.119500
     26 H3          11.6710   -20.9500   -16.5270 ha         1 NXO       0.119000
     27 H4          13.3420   -20.9000   -18.3290 ha         1 NXO       0.119000
     28 H5          14.0460   -18.1760   -14.2740 ha         1 NXO       0.132000
     29 H6          12.0170   -19.5910   -14.4790 ha         1 NXO       0.118000
     30 H7          14.1200   -19.2330   -19.9620 ha         1 NXO       0.119500
     31 H8          15.6910   -19.1550   -21.8250 ha         1 NXO       0.117500
     32 H9          19.4310   -21.0840   -21.1480 ha         1 NXO       0.127000
     33 H10         21.0820   -20.9590   -22.9800 ha         1 NXO       0.124000
     34 H11         21.0040   -19.0840   -24.5850 ha         1 NXO       0.120000
     35 H12         18.9190   -17.3850   -25.6230 h1         1 NXO       0.086200
     36 H13         20.3010   -16.6370   -24.8520 h1         1 NXO       0.086200
     37 H14         18.9800   -15.1980   -23.6650 hn         1 NXO       0.491000
     38 O22         16.4090   -15.1600   -23.0030 o          1 NXO      -0.527000
     39 O23         16.3630   -17.1180   -24.5800 o          1 NXO      -0.527000
@<TRIPOS>BOND
     1     1     2 ar  
     2     1    12 ar  
     3     1    13 1   
     4     2     3 ar  
     5     2    24 1   
     6     3    10 ar  
     7     3    25 1   
     8     4     5 ar  
     9     4     9 ar  
    10     4    26 1   
    11     5     6 ar  
    12     5    27 1   
    13     6     7 ar  
    14     6    10 1   
    15     7     8 ar  
    16     7    20 1   
    17     8     9 ar  
    18     8    28 1   
    19     9    29 1   
    20    10    11 ar  
    21    11    12 ar  
    22    11    30 1   
    23    12    31 1   
    24    13    14 ar  
    25    13    18 ar  
    26    14    15 ar  
    27    14    32 1   
    28    15    16 ar  
    29    15    33 1   
    30    16    17 ar  
    31    16    34 1   
    32    17    18 ar  
    33    17    19 1   
    34    18    22 1   
    35    19    21 1   
    36    19    35 1   
    37    19    36 1   
    38    21    23 1   
    39    21    37 1   
    40    22    23 1   
    41    23    38 2   
    42    23    39 2   
@<TRIPOS>SUBSTRUCTURE
     1 NXO         1 TEMP              0 ****  ****    0 ROOT
