@<TRIPOS>MOLECULE
NXP
   43    45     1     0     0
SMALL
bcc


@<TRIPOS>ATOM
      1 NAB          1.2320    -0.4220     0.0620 ns         1 NXP      -0.472100
      2 CAP         -0.1000    -0.0200     0.1310 ca         1 NXP       0.087600
      3 CAU         -1.0670    -1.0320     0.0550 ca         1 NXP      -0.179500
      4 CAT         -2.4110    -0.7400     0.1230 ca         1 NXP      -0.077000
      5 CAS         -2.8630     0.5750     0.2800 ca         1 NXP      -0.141900
      6 CAR         -1.8930     1.5730     0.3530 ca         1 NXP      -0.077000
      7 CAQ         -0.5350     1.2960     0.2770 ca         1 NXP      -0.179500
      8 CAV         -4.3060     0.8780     0.3420 ce         1 NXP       0.366900
      9 CAW         -4.7890     2.1890     0.8940 c3         1 NXP      -0.166400
     10 NAC         -5.0930    -0.0330    -0.0890 n2         1 NXP      -0.355400
     11 NAD         -6.4130     0.1700    -0.0480 nu         1 NXP      -0.560300
     12 CAX         -7.2780    -0.7610    -0.5890 c2         1 NXP       0.812100
     13 NAF         -6.8460    -1.8180    -1.1570 n2         1 NXP      -0.832100
     14 NAE         -8.5890    -0.3580    -0.4700 nv         1 NXP      -0.964800
     15 OAY          2.3460     1.5610     0.0960 o          1 NXP      -0.587100
     16 CAO          2.3660     0.3390     0.0760 c          1 NXP       0.722300
     17 CAN          3.6260    -0.4040     0.0600 cc         1 NXP      -0.222400
     18 CAM          3.8260    -1.7520     0.2630 cd         1 NXP      -0.072100
     19 NAA          5.1430    -2.0340     0.1950 na         1 NXP      -0.157400
     20 CAJ          5.8530    -0.8880    -0.0480 ca         1 NXP      -0.062200
     21 CAI          7.2260    -0.7070    -0.1970 ca         1 NXP      -0.145000
     22 CAH          7.6710     0.5770    -0.4410 ca         1 NXP      -0.107000
     23 CAG          6.7710     1.6490    -0.5370 ca         1 NXP      -0.154000
     24 CAL          5.4100     1.4630    -0.3880 ca         1 NXP      -0.065000
     25 CAK          4.9290     0.1720    -0.1360 ca         1 NXP      -0.053800
     26 HAU         -0.7550    -2.0640    -0.0560 ha         1 NXP       0.145500
     27 HAQ          0.1670     2.1110     0.3310 ha         1 NXP       0.145500
     28 HAT         -3.1280    -1.5480     0.0650 ha         1 NXP       0.142000
     29 HAR         -2.1820     2.6100     0.4570 ha         1 NXP       0.142000
     30 HAW1        -5.2320     2.8130     0.1130 hc         1 NXP       0.047367
     31 HAW2        -5.5560     2.0310     1.6560 hc         1 NXP       0.047367
     32 HAW3        -3.9980     2.7650     1.3620 hc         1 NXP       0.047367
     33 HAF         -7.6250    -2.3980    -1.4460 hn         1 NXP       0.375400
     34 HAE1        -8.8280     0.1820     0.3480 hn         1 NXP       0.398800
     35 HAE2        -9.2730    -1.0740    -0.6560 hn         1 NXP       0.398800
     36 HAM          3.1210    -2.5420     0.4680 h4         1 NXP       0.161000
     37 HAA          5.5350    -2.9530     0.3230 hn         1 NXP       0.303700
     38 HAI          7.9150    -1.5380    -0.1240 ha         1 NXP       0.132000
     39 HAH          8.7310     0.7580    -0.5610 ha         1 NXP       0.130000
     40 HAG          7.1530     2.6430    -0.7320 ha         1 NXP       0.132000
     41 HAL          4.7310     2.3000    -0.4620 ha         1 NXP       0.159000
     42 HAD         -6.7850     1.0790     0.1900 hn         1 NXP       0.425800
     43 HAB          1.3550    -1.4170    -0.0400 hn         1 NXP       0.310500
@<TRIPOS>BOND
     1     1     2 1   
     2     1    16 1   
     3     1    43 1   
     4     2     3 ar  
     5     2     7 ar  
     6     3     4 ar  
     7     3    26 1   
     8     4     5 ar  
     9     4    28 1   
    10     5     6 ar  
    11     5     8 1   
    12     6     7 ar  
    13     6    29 1   
    14     7    27 1   
    15     8     9 1   
    16     8    10 2   
    17     9    30 1   
    18     9    31 1   
    19     9    32 1   
    20    10    11 1   
    21    11    12 1   
    22    11    42 1   
    23    12    13 2   
    24    12    14 1   
    25    13    33 1   
    26    14    34 1   
    27    14    35 1   
    28    15    16 2   
    29    16    17 1   
    30    17    18 2   
    31    17    25 1   
    32    18    19 1   
    33    18    36 1   
    34    19    20 1   
    35    19    37 1   
    36    20    21 ar  
    37    20    25 ar  
    38    21    22 ar  
    39    21    38 1   
    40    22    23 ar  
    41    22    39 1   
    42    23    24 ar  
    43    23    40 1   
    44    24    25 ar  
    45    24    41 1   
@<TRIPOS>SUBSTRUCTURE
     1 NXP         1 TEMP              0 ****  ****    0 ROOT
