@<TRIPOS>MOLECULE
NXP
   43    45     1     0     0
SMALL
No Charge or Current Charge


@<TRIPOS>ATOM
      1 NAB          1.3040    -0.2700     0.1150 ns         1 NXP      -0.146000
      2 CAP         -0.0780     0.0610     0.1700 ca         1 NXP      -0.005000
      3 CAU         -0.9890    -0.9840     0.4010 ca         1 NXP      -0.161500
      4 CAT         -2.3710    -0.7350     0.4650 ca         1 NXP      -0.059000
      5 CAS         -2.8740     0.5760     0.3150 ca         1 NXP      -0.141900
      6 CAR         -1.9600     1.6180     0.0500 ca         1 NXP      -0.059000
      7 CAQ         -0.5780     1.3670    -0.0150 ca         1 NXP      -0.161500
      8 CAV         -4.3540     0.8390     0.3390 ce         1 NXP       0.366900
      9 CAW         -4.8420     2.1550     0.9370 c3         1 NXP      -0.166400
     10 NAC         -5.1660    -0.1120    -0.0390 n2         1 NXP      -0.355400
     11 NAD         -6.5290     0.0860    -0.1740 nu         1 NXP      -0.615500
     12 CAX         -7.4270    -0.8400    -0.5970 c2         1 NXP       0.812100
     13 NAF         -7.1420    -1.8950    -1.2140 n2         1 NXP      -0.832100
     14 NAE         -8.6440    -0.3550    -0.3880 nv         1 NXP      -1.075200
     15 OAY          2.4490     1.7310    -0.0230 o          1 NXP      -0.587100
     16 CAO          2.4530     0.5060     0.0140 c          1 NXP       0.655300
     17 CAN          3.7030    -0.3050    -0.0360 cc         1 NXP      -0.222400
     18 CAM          3.7810    -1.7010     0.0040 cd         1 NXP      -0.122100
     19 NAA          5.1400    -2.0910    -0.0670 na         1 NXP      -0.207700
     20 CAJ          5.8750    -0.9210    -0.1490 ca         1 NXP      -0.062200
     21 CAI          7.2680    -0.7970    -0.2380 ca         1 NXP      -0.127000
     22 CAH          7.8190     0.4990    -0.3130 ca         1 NXP      -0.089000
     23 CAG          6.9750     1.6340    -0.2980 ca         1 NXP      -0.136000
     24 CAL          5.5750     1.4810    -0.2070 ca         1 NXP      -0.047000
     25 CAK          5.0580     0.1770    -0.1340 ca         1 NXP      -0.053800
     26 HAU         -0.6270    -2.0010     0.5320 ha         1 NXP       0.127500
     27 HAQ          0.0830     2.2010    -0.2240 ha         1 NXP       0.127500
     28 HAT         -3.0480    -1.5670     0.6450 ha         1 NXP       0.124000
     29 HAR         -2.3160     2.6320    -0.1210 ha         1 NXP       0.124000
     30 HAW1        -5.2660     2.8070     0.1650 hc         1 NXP       0.047367
     31 HAW2        -5.6130     1.9840     1.6980 hc         1 NXP       0.047367
     32 HAW3        -4.0370     2.7080     1.4330 hc         1 NXP       0.047367
     33 HAF         -8.0170    -2.3620    -1.4650 hn         1 NXP       0.375400
     34 HAE1        -8.8070    -0.1530     0.5910 hn         1 NXP       0.454000
     35 HAE2        -9.3790    -0.9160    -0.7990 hn         1 NXP       0.454000
     36 HAM          2.9890    -2.4440     0.0750 h4         1 NXP       0.211000
     37 HAA          5.5040    -3.0400    -0.0590 hn         1 NXP       0.354000
     38 HAI          7.9100    -1.6750    -0.2490 ha         1 NXP       0.114000
     39 HAH          8.8980     0.6260    -0.3830 ha         1 NXP       0.112000
     40 HAG          7.4070     2.6310    -0.3560 ha         1 NXP       0.114000
     41 HAL          4.9260     2.3520    -0.1960 ha         1 NXP       0.141000
     42 HAD         -6.9760     0.9860    -0.0160 hn         1 NXP       0.481000
     43 HAB          1.4830    -1.2640     0.1540 hn         1 NXP       0.144000
@<TRIPOS>BOND
     1     1     2 1   
     2     1    16 1   
     3     1    43 1   
     4     2     3 ar  
     5     2     7 ar  
     6     3     4 ar  
     7     3    26 1   
     8     4     5 ar  
     9     4    28 1   
    10     5     6 ar  
    11     5     8 1   
    12     6     7 ar  
    13     6    29 1   
    14     7    27 1   
    15     8     9 1   
    16     8    10 2   
    17     9    30 1   
    18     9    31 1   
    19     9    32 1   
    20    10    11 1   
    21    11    12 1   
    22    11    42 1   
    23    12    13 2   
    24    12    14 1   
    25    13    33 1   
    26    14    34 1   
    27    14    35 1   
    28    15    16 2   
    29    16    17 1   
    30    17    18 2   
    31    17    25 1   
    32    18    19 1   
    33    18    36 1   
    34    19    20 1   
    35    19    37 1   
    36    20    21 ar  
    37    20    25 ar  
    38    21    22 ar  
    39    21    38 1   
    40    22    23 ar  
    41    22    39 1   
    42    23    24 ar  
    43    23    40 1   
    44    24    25 ar  
    45    24    41 1   
@<TRIPOS>SUBSTRUCTURE
     1 NXP         1 TEMP              0 ****  ****    0 ROOT
