@<TRIPOS>MOLECULE
NXR
   73    76     1     0     0
SMALL
No Charge or Current Charge


@<TRIPOS>ATOM
      1 C02        115.3950   -15.6240    89.1330 c          1 NXR       0.601100
      2 C04        117.0290   -17.1660    90.2700 c3         1 NXR       0.107000
      3 C05        116.4150   -18.5710    90.0840 c3         1 NXR      -0.094400
      4 C06        116.5960   -19.1700    88.6670 c3         1 NXR      -0.032100
      5 C07        118.0420   -19.1570    88.1830 ca         1 NXR      -0.121300
      6 C08        119.0290   -19.9340    88.8270 ca         1 NXR       0.330900
      7 C10        120.6810   -19.1960    87.3800 ca         1 NXR       0.322900
      8 C11        119.7680   -18.3900    86.6790 ca         1 NXR      -0.164000
      9 C12        118.4220   -18.3680    87.0810 ca         1 NXR      -0.085000
     10 C13        115.1730   -14.7860    87.8510 c3         1 NXR      -0.012700
     11 C14        113.8920   -15.2080    87.1010 c3         1 NXR      -0.006100
     12 C15        113.9690   -16.6540    86.6220 ca         1 NXR      -0.089300
     13 C16        114.8260   -17.0020    85.5590 ca         1 NXR      -0.104500
     14 C17        114.9130   -18.3370    85.1280 ca         1 NXR      -0.117000
     15 C18        114.1440   -19.3310    85.7550 ca         1 NXR      -0.112000
     16 C19        113.2880   -18.9900    86.8150 ca         1 NXR      -0.117000
     17 C20        113.2010   -17.6560    87.2490 ca         1 NXR      -0.104500
     18 C23        117.9630   -12.9640    87.7790 c3         1 NXR       0.110700
     19 C24        119.3960   -12.7780    88.3210 c3         1 NXR      -0.044100
     20 C25        119.7760   -13.8610    89.3240 ca         1 NXR      -0.086300
     21 C26        120.2060   -15.1240    88.8700 ca         1 NXR      -0.110500
     22 C27        120.5560   -16.1260    89.7910 ca         1 NXR      -0.107500
     23 C28        120.4700   -15.8760    91.1710 ca         1 NXR      -0.106000
     24 C29        120.0370   -14.6200    91.6290 ca         1 NXR      -0.107500
     25 C30        119.6940   -13.6150    90.7090 ca         1 NXR      -0.110500
     26 C34        117.1920   -11.5930    84.2570 ca         1 NXR      -0.206600
     27 C35        116.9020   -12.0080    82.9400 ca         1 NXR      -0.023000
     28 C36        116.6580   -11.0290    81.9640 ca         1 NXR      -0.172000
     29 C37        116.7090    -9.6750    82.3260 ca         1 NXR       0.354900
     30 C39        117.2190   -10.2100    84.5240 ca         1 NXR       0.361900
     31 N03        116.6280   -16.2330    89.2170 ns         1 NXR      -0.502900
     32 N09        120.3260   -19.9590    88.4390 nb         1 NXR      -0.665000
     33 N31        117.7410   -12.1280    86.5930 ns         1 NXR      -0.495900
     34 N38        116.9850    -9.2650    83.5840 nb         1 NXR      -0.668000
     35 O01        114.5490   -15.7460    90.0100 o          1 NXR      -0.587100
     36 O33        117.4260   -13.8090    85.0970 o          1 NXR      -0.614100
     37 S21        115.1520   -12.9560    88.2030 ss         1 NXR      -0.389000
     38 H1         118.1230   -17.2490    90.2550 h1         1 NXR       0.054700
     39 H2         116.7400   -16.7580    91.2470 h1         1 NXR       0.054700
     40 H3         115.3420   -18.5250    90.3080 hc         1 NXR       0.054200
     41 H4         116.8570   -19.2470    90.8260 hc         1 NXR       0.054200
     42 H5         115.9590   -18.6160    87.9680 hc         1 NXR       0.058200
     43 H6         116.2130   -20.1980    88.6660 hc         1 NXR       0.058200
     44 H7         118.7720   -20.5580    89.6820 h4         1 NXR       0.018100
     45 H8         121.7300   -19.2310    87.0860 h4         1 NXR       0.019100
     46 H9         120.1050   -17.7960    85.8340 ha         1 NXR       0.124000
     47 H10        117.6970   -17.7560    86.5480 ha         1 NXR       0.123000
     48 H11        116.0140   -14.9850    87.1780 h1         1 NXR       0.082700
     49 H12        113.7530   -14.5460    86.2380 hc         1 NXR       0.072700
     50 H13        113.0210   -15.0520    87.7490 hc         1 NXR       0.072700
     51 H14        115.4260   -16.2390    85.0680 ha         1 NXR       0.124000
     52 H15        115.5780   -18.6000    84.3080 ha         1 NXR       0.112500
     53 H16        114.2130   -20.3650    85.4210 ha         1 NXR       0.112000
     54 H17        112.6940   -19.7600    87.3030 ha         1 NXR       0.112500
     55 H18        112.5400   -17.4030    88.0760 ha         1 NXR       0.124000
     56 H19        117.0350   -13.3670    89.7130 h1         1 NXR       0.083200
     57 H20        116.9640   -11.6690    89.2120 h1         1 NXR       0.083200
     58 H21        117.8880   -14.0150    87.4780 h1         1 NXR       0.078700
     59 H22        120.0990   -12.8070    87.4790 hc         1 NXR       0.056200
     60 H23        119.4960   -11.7800    88.7640 hc         1 NXR       0.056200
     61 H24        120.2720   -15.3290    87.8040 ha         1 NXR       0.111500
     62 H25        120.8910   -17.0980    89.4370 ha         1 NXR       0.118500
     63 H26        120.7380   -16.6530    91.8830 ha         1 NXR       0.118000
     64 H27        119.9700   -14.4250    92.6970 ha         1 NXR       0.118500
     65 H28        119.3620   -12.6450    91.0730 ha         1 NXR       0.111500
     66 H29        116.8660   -13.0640    82.6750 ha         1 NXR       0.138000
     67 H30        116.4310   -11.3100    80.9400 ha         1 NXR       0.130000
     68 H31        116.5230    -8.8950    81.5880 h4         1 NXR       0.023100
     69 H32        117.4350    -9.8260    85.5200 h4         1 NXR       0.021100
     70 H33        117.2730   -16.0770    88.4530 hn         1 NXR       0.313500
     71 H34        117.7450   -11.1240    86.7140 hn         1 NXR       0.317500
     72 C22        116.8760   -12.7030    88.8540 c3         1 NXR       0.025600
     73 C32        117.4570   -12.6090    85.3310 c          1 NXR       0.634700
@<TRIPOS>BOND
     1     1    10 1   
     2     1    31 1   
     3     1    35 2   
     4     2     3 1   
     5     2    31 1   
     6     2    38 1   
     7     2    39 1   
     8     3     4 1   
     9     3    40 1   
    10     3    41 1   
    11     4     5 1   
    12     4    42 1   
    13     4    43 1   
    14     5     6 ar  
    15     5     9 ar  
    16     6    32 ar  
    17     6    44 1   
    18     7     8 ar  
    19     7    32 ar  
    20     7    45 1   
    21     8     9 ar  
    22     8    46 1   
    23     9    47 1   
    24    10    11 1   
    25    10    37 1   
    26    10    48 1   
    27    11    12 1   
    28    11    49 1   
    29    11    50 1   
    30    12    13 ar  
    31    12    17 ar  
    32    13    14 ar  
    33    13    51 1   
    34    14    15 ar  
    35    14    52 1   
    36    15    16 ar  
    37    15    53 1   
    38    16    17 ar  
    39    16    54 1   
    40    17    55 1   
    41    18    19 1   
    42    18    33 1   
    43    18    58 1   
    44    18    72 1   
    45    19    20 1   
    46    19    59 1   
    47    19    60 1   
    48    20    21 ar  
    49    20    25 ar  
    50    21    22 ar  
    51    21    61 1   
    52    22    23 ar  
    53    22    62 1   
    54    23    24 ar  
    55    23    63 1   
    56    24    25 ar  
    57    24    64 1   
    58    25    65 1   
    59    26    27 ar  
    60    26    30 ar  
    61    26    73 1   
    62    27    28 ar  
    63    27    66 1   
    64    28    29 ar  
    65    28    67 1   
    66    29    34 ar  
    67    29    68 1   
    68    30    34 ar  
    69    30    69 1   
    70    31    70 1   
    71    33    71 1   
    72    33    73 1   
    73    36    73 2   
    74    37    72 1   
    75    56    72 1   
    76    57    72 1   
@<TRIPOS>SUBSTRUCTURE
     1 NXR         1 TEMP              0 ****  ****    0 ROOT
