@<TRIPOS>MOLECULE
NXR
   73    76     1     0     0
SMALL
abcg2


@<TRIPOS>ATOM
      1 C02        115.4440   -15.6880    89.0270 c          1 NXR       0.601100
      2 C04        116.8980   -17.2050    90.3030 c3         1 NXR       0.107000
      3 C05        116.2700   -18.5880    90.1490 c3         1 NXR      -0.094400
      4 C06        116.5110   -19.2300    88.7800 c3         1 NXR      -0.032100
      5 C07        117.9530   -19.2400    88.3550 ca         1 NXR      -0.121300
      6 C08        118.9210   -19.9200    89.0940 ca         1 NXR       0.330900
      7 C10        120.6050   -19.3130    87.6910 ca         1 NXR       0.322900
      8 C11        119.7360   -18.6040    86.8780 ca         1 NXR      -0.164000
      9 C12        118.3910   -18.5710    87.2190 ca         1 NXR      -0.085000
     10 C13        115.3520   -14.8700    87.7490 c3         1 NXR      -0.012700
     11 C14        114.0790   -15.2010    86.9690 c3         1 NXR      -0.006100
     12 C15        114.0820   -16.6400    86.5260 ca         1 NXR      -0.089300
     13 C16        114.9490   -17.0570    85.5170 ca         1 NXR      -0.104500
     14 C17        114.9840   -18.3830    85.1120 ca         1 NXR      -0.117000
     15 C18        114.1480   -19.3170    85.7110 ca         1 NXR      -0.112000
     16 C19        113.2800   -18.9130    86.7160 ca         1 NXR      -0.117000
     17 C20        113.2520   -17.5850    87.1230 ca         1 NXR      -0.104500
     18 C23        118.1040   -13.0340    87.5970 c3         1 NXR       0.110700
     19 C24        119.5240   -12.8220    88.1440 c3         1 NXR      -0.044100
     20 C25        119.8910   -13.8440    89.1840 ca         1 NXR      -0.086300
     21 C26        120.1120   -15.1710    88.8170 ca         1 NXR      -0.110500
     22 C27        120.4260   -16.1300    89.7690 ca         1 NXR      -0.107500
     23 C28        120.5240   -15.7770    91.1090 ca         1 NXR      -0.106000
     24 C29        120.3080   -14.4590    91.4860 ca         1 NXR      -0.107500
     25 C30        119.9950   -13.5020    90.5290 ca         1 NXR      -0.110500
     26 C34        117.0190   -11.4680    84.3350 ca         1 NXR      -0.206600
     27 C35        117.1540   -11.7030    82.9710 ca         1 NXR      -0.023000
     28 C36        116.8080   -10.7020    82.0810 ca         1 NXR      -0.172000
     29 C37        116.3150    -9.5080    82.5880 ca         1 NXR       0.354900
     30 C39        116.4990   -10.2400    84.7330 ca         1 NXR       0.361900
     31 N03        116.6170   -16.3140    89.2000 ns         1 NXR      -0.502900
     32 N09        120.2090   -19.9620    88.7810 nb         1 NXR      -0.665000
     33 N31        117.8520   -12.1480    86.4850 ns         1 NXR      -0.495900
     34 N38        116.1510    -9.2810    83.8850 nb         1 NXR      -0.668000
     35 O01        114.5220   -15.7480    89.8260 o          1 NXR      -0.587100
     36 O33        117.2220   -13.7280    84.9850 o          1 NXR      -0.614100
     37 S21        115.3470   -13.0930    88.1430 ss         1 NXR      -0.389000
     38 H1         117.9820   -17.2880    90.3700 h1         1 NXR       0.054700
     39 H2         116.5630   -16.7490    91.2360 h1         1 NXR       0.054700
     40 H3         115.1930   -18.5290    90.3170 hc         1 NXR       0.054200
     41 H4         116.6710   -19.2250    90.9420 hc         1 NXR       0.054200
     42 H5         115.9210   -18.7090    88.0230 hc         1 NXR       0.058200
     43 H6         116.1290   -20.2540    88.8050 hc         1 NXR       0.058200
     44 H7         118.6280   -20.4610    89.9900 h4         1 NXR       0.018100
     45 H8         121.6630   -19.3580    87.4560 h4         1 NXR       0.019100
     46 H9         120.1030   -18.0900    86.0000 ha         1 NXR       0.124000
     47 H10        117.6840   -18.0290    86.6010 ha         1 NXR       0.123000
     48 H11        116.2060   -15.0660    87.0980 h1         1 NXR       0.082700
     49 H12        114.0370   -14.5460    86.0960 hc         1 NXR       0.072700
     50 H13        113.2000   -14.9890    87.5780 hc         1 NXR       0.072700
     51 H14        115.6010   -16.3340    85.0380 ha         1 NXR       0.124000
     52 H15        115.6620   -18.6880    84.3250 ha         1 NXR       0.112500
     53 H16        114.1730   -20.3520    85.3960 ha         1 NXR       0.112000
     54 H17        112.6240   -19.6330    87.1890 ha         1 NXR       0.112500
     55 H18        112.5730   -17.2780    87.9090 ha         1 NXR       0.124000
     56 H19        117.2720   -13.4980    89.5390 h1         1 NXR       0.083200
     57 H20        117.0880   -11.8190    89.0670 h1         1 NXR       0.083200
     58 H21        118.0500   -14.0520    87.2100 h1         1 NXR       0.078700
     59 H22        120.2180   -12.8810    87.3020 hc         1 NXR       0.056200
     60 H23        119.6090   -11.8130    88.5580 hc         1 NXR       0.056200
     61 H24        120.0430   -15.4600    87.7730 ha         1 NXR       0.111500
     62 H25        120.5970   -17.1540    89.4640 ha         1 NXR       0.118500
     63 H26        120.7700   -16.5240    91.8530 ha         1 NXR       0.118000
     64 H27        120.3850   -14.1720    92.5270 ha         1 NXR       0.118500
     65 H28        119.8280   -12.4750    90.8330 ha         1 NXR       0.111500
     66 H29        117.5340   -12.6500    82.6130 ha         1 NXR       0.138000
     67 H30        116.9130   -10.8390    81.0140 ha         1 NXR       0.130000
     68 H31        116.0350    -8.7040    81.9170 h4         1 NXR       0.023100
     69 H32        116.3270   -10.0250    85.7840 h4         1 NXR       0.021100
     70 H33        117.3140   -16.2320    88.4770 hn         1 NXR       0.313500
     71 H34        117.9970   -11.1630    86.6450 hn         1 NXR       0.317500
     72 C22        117.0550   -12.8450    88.6930 c3         1 NXR       0.025600
     73 C32        117.3660   -12.5540    85.3000 c          1 NXR       0.634700
@<TRIPOS>BOND
     1     1    10 1   
     2     1    31 1   
     3     1    35 2   
     4     2     3 1   
     5     2    31 1   
     6     2    38 1   
     7     2    39 1   
     8     3     4 1   
     9     3    40 1   
    10     3    41 1   
    11     4     5 1   
    12     4    42 1   
    13     4    43 1   
    14     5     6 ar  
    15     5     9 ar  
    16     6    32 ar  
    17     6    44 1   
    18     7     8 ar  
    19     7    32 ar  
    20     7    45 1   
    21     8     9 ar  
    22     8    46 1   
    23     9    47 1   
    24    10    11 1   
    25    10    37 1   
    26    10    48 1   
    27    11    12 1   
    28    11    49 1   
    29    11    50 1   
    30    12    13 ar  
    31    12    17 ar  
    32    13    14 ar  
    33    13    51 1   
    34    14    15 ar  
    35    14    52 1   
    36    15    16 ar  
    37    15    53 1   
    38    16    17 ar  
    39    16    54 1   
    40    17    55 1   
    41    18    19 1   
    42    18    33 1   
    43    18    58 1   
    44    18    72 1   
    45    19    20 1   
    46    19    59 1   
    47    19    60 1   
    48    20    21 ar  
    49    20    25 ar  
    50    21    22 ar  
    51    21    61 1   
    52    22    23 ar  
    53    22    62 1   
    54    23    24 ar  
    55    23    63 1   
    56    24    25 ar  
    57    24    64 1   
    58    25    65 1   
    59    26    27 ar  
    60    26    30 ar  
    61    26    73 1   
    62    27    28 ar  
    63    27    66 1   
    64    28    29 ar  
    65    28    67 1   
    66    29    34 ar  
    67    29    68 1   
    68    30    34 ar  
    69    30    69 1   
    70    31    70 1   
    71    33    71 1   
    72    33    73 1   
    73    36    73 2   
    74    37    72 1   
    75    56    72 1   
    76    57    72 1   
@<TRIPOS>SUBSTRUCTURE
     1 NXR         1 TEMP              0 ****  ****    0 ROOT
