@<TRIPOS>MOLECULE
NXS
   29    30     1     0     0
SMALL
abcg2


@<TRIPOS>ATOM
      1 N1          -0.2810     0.0460     0.9860 nh         1 NXS      -0.762300
      2 N3          -2.1170    -1.1130     0.2040 nb         1 NXS      -0.248500
      3 C4           0.5870     1.2100     1.0150 c6         1 NXS       0.219800
      4 C5           0.4190    -1.1900     1.2810 c6         1 NXS       0.219800
      5 C6           1.5510    -1.4190     0.2860 c6         1 NXS      -0.100400
      6 C7          -1.4780     0.0570     0.3540 ca         1 NXS       0.386900
      7 C8          -3.1430     1.2380    -0.6410 ca         1 NXS       0.152400
      8 C10         -3.2990    -1.0810    -0.3840 ca         1 NXS       0.152400
      9 C2           2.5070    -0.2270     0.2460 c6         1 NXS      -0.065700
     10 C3           1.7220     1.0640     0.0080 c6         1 NXS      -0.100400
     11 C9          -3.8880     0.0870    -0.8410 ca         1 NXS      -0.291000
     12 N2          -1.9580     1.2400    -0.0570 nb         1 NXS      -0.248500
     13 H1           0.0060     2.1070     0.8260 h1         1 NXS       0.065700
     14 H2           1.0020     1.2940     2.0250 h1         1 NXS       0.065700
     15 H3           0.8290    -1.1140     2.2940 h1         1 NXS       0.065700
     16 H4          -0.2800    -2.0200     1.2750 h1         1 NXS       0.065700
     17 H5           2.0890    -2.3290     0.5620 hc         1 NXS       0.053200
     18 H6           1.1250    -1.5890    -0.7090 hc         1 NXS       0.053200
     19 H7          -3.5180     2.2030    -0.9660 h4         1 NXS       0.017600
     20 H8          -3.8030    -2.0360    -0.4980 h4         1 NXS       0.017600
     21 H11          2.9950    -0.1570     1.2280 hc         1 NXS       0.057700
     22 H12          1.3060     1.0580    -1.0060 hc         1 NXS       0.053200
     23 H13          2.3770     1.9340     0.0800 hc         1 NXS       0.053200
     24 H14         -4.8530     0.0980    -1.3230 ha         1 NXS       0.134000
     25 H15          5.1730     0.4520    -1.4440 ho         1 NXS       0.443000
     26 C1           3.5840    -0.4550    -0.7990 c3         1 NXS       0.166600
     27 O1           4.5120     0.6070    -0.7630 oh         1 NXS      -0.662000
     28 H9           4.0730    -1.4190    -0.6030 h1         1 NXS       0.017700
     29 H10          3.1080    -0.5380    -1.7870 h1         1 NXS       0.017700
@<TRIPOS>BOND
     1     1     3 1   
     2     1     4 1   
     3     1     6 1   
     4     2     6 ar  
     5     2     8 ar  
     6     3    10 1   
     7     3    13 1   
     8     3    14 1   
     9     4     5 1   
    10     4    15 1   
    11     4    16 1   
    12     5     9 1   
    13     5    17 1   
    14     5    18 1   
    15     6    12 ar  
    16     7    11 ar  
    17     7    12 ar  
    18     7    19 1   
    19     8    11 ar  
    20     8    20 1   
    21     9    10 1   
    22     9    21 1   
    23     9    26 1   
    24    10    22 1   
    25    10    23 1   
    26    11    24 1   
    27    25    27 1   
    28    26    27 1   
    29    26    28 1   
    30    26    29 1   
@<TRIPOS>SUBSTRUCTURE
     1 NXS         1 TEMP              0 ****  ****    0 ROOT
