@<TRIPOS>MOLECULE
NXS
   29    30     1     0     0
SMALL
No Charge or Current Charge


@<TRIPOS>ATOM
      1 N1          -0.3050    -0.0410     0.1840 nh         1 NXS      -0.762300
      2 N3          -2.4220    -1.1210     0.1570 nb         1 NXS      -0.248500
      3 C4           0.5330     1.1930     0.3500 c6         1 NXS       0.219800
      4 C5           0.3700    -1.2900     0.6740 c6         1 NXS       0.219800
      5 C6           1.7730    -1.4680     0.0430 c6         1 NXS      -0.100400
      6 C7          -1.7250     0.0350     0.0660 ca         1 NXS       0.386900
      7 C8          -3.6080     1.3260    -0.2580 ca         1 NXS       0.152400
      8 C10         -3.7610    -1.0470     0.0370 ca         1 NXS       0.152400
      9 C2           2.6700    -0.2260     0.2710 c6         1 NXS      -0.065700
     10 C3           1.9370     1.0240    -0.2810 c6         1 NXS      -0.100400
     11 C9          -4.4080     0.1780    -0.1740 ca         1 NXS      -0.291000
     12 N2          -2.2680     1.2570    -0.1400 nb         1 NXS      -0.248500
     13 H1           0.0690     2.0700    -0.1240 h1         1 NXS       0.065700
     14 H2           0.6440     1.4280     1.4200 h1         1 NXS       0.065700
     15 H3           0.4680    -1.2560     1.7690 h1         1 NXS       0.065700
     16 H4          -0.2100    -2.1920     0.4320 h1         1 NXS       0.065700
     17 H5           2.2490    -2.3610     0.4690 hc         1 NXS       0.053200
     18 H6           1.6630    -1.6580    -1.0340 hc         1 NXS       0.053200
     19 H7          -4.0400     2.3120    -0.4230 h4         1 NXS       0.017600
     20 H8          -4.3170    -1.9800     0.1120 h4         1 NXS       0.017600
     21 H11          2.8260    -0.1010     1.3520 hc         1 NXS       0.057700
     22 H12          1.8360     0.9470    -1.3720 hc         1 NXS       0.053200
     23 H13          2.5270     1.9290    -0.0860 hc         1 NXS       0.053200
     24 H14         -5.4890     0.2360    -0.2710 ha         1 NXS       0.134000
     25 H15          5.8250     0.4560    -0.4770 ho         1 NXS       0.443000
     26 C1           4.0780    -0.4210    -0.3620 c3         1 NXS       0.166600
     27 O1           4.9670     0.6570    -0.0430 oh         1 NXS      -0.662000
     28 H9           4.4970    -1.3670     0.0080 h1         1 NXS       0.017700
     29 H10          3.9680    -0.5120    -1.4510 h1         1 NXS       0.017700
@<TRIPOS>BOND
     1     1     3 1   
     2     1     4 1   
     3     1     6 1   
     4     2     6 ar  
     5     2     8 ar  
     6     3    10 1   
     7     3    13 1   
     8     3    14 1   
     9     4     5 1   
    10     4    15 1   
    11     4    16 1   
    12     5     9 1   
    13     5    17 1   
    14     5    18 1   
    15     6    12 ar  
    16     7    11 ar  
    17     7    12 ar  
    18     7    19 1   
    19     8    11 ar  
    20     8    20 1   
    21     9    10 1   
    22     9    21 1   
    23     9    26 1   
    24    10    22 1   
    25    10    23 1   
    26    11    24 1   
    27    25    27 1   
    28    26    27 1   
    29    26    28 1   
    30    26    29 1   
@<TRIPOS>SUBSTRUCTURE
     1 NXS         1 TEMP              0 ****  ****    0 ROOT
