@<TRIPOS>MOLECULE
NXT
   21    22     1     0     0
SMALL
bcc


@<TRIPOS>ATOM
      1 C7         -47.4180    13.8740    28.6240 c6         1 NXT       0.005900
      2 C6         -47.6070    13.6770    30.1310 c6         1 NXT      -0.078400
      3 C5         -47.4170    14.9740    30.9160 c6         1 NXT      -0.069400
      4 C4         -48.4640    16.0240    30.5330 c6         1 NXT      -0.084700
      5 C8         -48.1270    15.1110    28.1740 cc         1 NXT      -0.170600
      6 C3         -48.5790    16.0360    29.0530 cd         1 NXT       0.165000
      7 O2         -49.1870    17.0550    28.4030 os         1 NXT      -0.364800
      8 C2         -49.1100    16.7790    27.0830 cd         1 NXT       0.226600
      9 C1         -48.4690    15.6030    26.8640 cc         1 NXT      -0.250900
     10 C          -48.2110    14.9910    25.5140 c          1 NXT       0.946200
     11 O1         -48.5840    15.6570    24.5270 o          1 NXT      -0.834300
     12 O          -47.6510    13.8760    25.5020 o          1 NXT      -0.834300
     13 H1         -47.7820    13.0020    28.0820 hc         1 NXT       0.060700
     14 H2         -46.3510    13.9480    28.3880 hc         1 NXT       0.060700
     15 H3         -48.6130    13.2900    30.3220 hc         1 NXT       0.025700
     16 H4         -46.9090    12.9190    30.4920 hc         1 NXT       0.025700
     17 H5         -47.4680    14.7790    31.9880 hc         1 NXT       0.027700
     18 H6         -46.4180    15.3740    30.7160 hc         1 NXT       0.027700
     19 H7         -48.1770    17.0070    30.9160 hc         1 NXT       0.034700
     20 H8         -49.4260    15.7800    30.9980 hc         1 NXT       0.034700
     21 H9         -49.5510    17.5030    26.4160 h4         1 NXT       0.046100
@<TRIPOS>BOND
     1     1     2 1   
     2     1     5 1   
     3     1    13 1   
     4     1    14 1   
     5     2     3 1   
     6     2    15 1   
     7     2    16 1   
     8     3     4 1   
     9     3    17 1   
    10     3    18 1   
    11     4     6 1   
    12     4    19 1   
    13     4    20 1   
    14     5     6 2   
    15     5     9 1   
    16     6     7 1   
    17     7     8 1   
    18     8     9 2   
    19     8    21 1   
    20     9    10 1   
    21    10    11 1   
    22    10    12 1   
@<TRIPOS>SUBSTRUCTURE
     1 NXT         1 TEMP              0 ****  ****    0 ROOT
