@<TRIPOS>MOLECULE
NXT
   21    22     1     0     0
SMALL
No Charge or Current Charge


@<TRIPOS>ATOM
      1 C7         -47.4330    13.8810    28.5900 c6         1 NXT       0.005900
      2 C6         -47.5910    13.6520    30.1220 c6         1 NXT      -0.078400
      3 C5         -47.4080    14.9640    30.9370 c6         1 NXT      -0.069400
      4 C4         -48.4630    16.0360    30.5460 c6         1 NXT      -0.084700
      5 C8         -48.1540    15.1460    28.1840 cc         1 NXT      -0.105300
      6 C3         -48.6040    16.1020    29.0450 cd         1 NXT       0.055300
      7 O2         -49.2130    17.1450    28.3940 os         1 NXT      -0.276000
      8 C2         -49.1150    16.8040    27.0600 cd         1 NXT       0.116900
      9 C1         -48.4770    15.6020    26.8810 cc         1 NXT      -0.185600
     10 C          -48.2070    14.9710    25.5660 c          1 NXT       0.735600
     11 O1         -48.5840    15.5510    24.5580 o          1 NXT      -0.729000
     12 O          -47.6160    13.9030    25.5210 o          1 NXT      -0.729000
     13 H1         -47.8200    13.0060    28.0500 hc         1 NXT       0.060700
     14 H2         -46.3670    13.9590    28.3390 hc         1 NXT       0.060700
     15 H3         -48.5880    13.2380    30.3270 hc         1 NXT       0.025700
     16 H4         -46.8680    12.8960    30.4580 hc         1 NXT       0.025700
     17 H5         -47.4740    14.7520    32.0130 hc         1 NXT       0.027700
     18 H6         -46.3990    15.3620    30.7600 hc         1 NXT       0.027700
     19 H7         -48.1760    17.0130    30.9570 hc         1 NXT       0.034700
     20 H8         -49.4320    15.7780    30.9960 hc         1 NXT       0.034700
     21 H9         -49.5310    17.4970    26.3390 h4         1 NXT       0.046100
@<TRIPOS>BOND
     1     1     2 1   
     2     1     5 1   
     3     1    13 1   
     4     1    14 1   
     5     2     3 1   
     6     2    15 1   
     7     2    16 1   
     8     3     4 1   
     9     3    17 1   
    10     3    18 1   
    11     4     6 1   
    12     4    19 1   
    13     4    20 1   
    14     5     6 2   
    15     5     9 1   
    16     6     7 1   
    17     7     8 1   
    18     8     9 2   
    19     8    21 1   
    20     9    10 1   
    21    10    11 1   
    22    10    12 1   
@<TRIPOS>SUBSTRUCTURE
     1 NXT         1 TEMP              0 ****  ****    0 ROOT
