@<TRIPOS>MOLECULE
NXU
   48    50     1     0     0
SMALL
No Charge or Current Charge


@<TRIPOS>ATOM
      1 O2           1.1300    -1.1010     1.6400 o          1 NXU      -0.615100
      2 C11          1.2580    -0.9260     0.4370 c          1 NXU       0.622700
      3 N1           0.4420    -1.5300    -0.4850 ns         1 NXU      -0.491900
      4 C12         -0.8830    -2.0840    -0.1640 c3         1 NXU       0.106700
      5 C13         -1.9900    -0.9860    -0.2170 c5         1 NXU       0.312500
      6 S1          -3.3900    -1.3910     0.9130 ss         1 NXU      -0.573000
      7 C15         -3.9510     0.3830     0.9740 c5         1 NXU       0.132000
      8 C19         -4.1580     0.7460     2.4660 c3         1 NXU      -0.073100
      9 C20         -5.3230     0.4800     0.2540 c3         1 NXU      -0.073100
     10 C16         -2.7640     1.2130     0.3440 c5         1 NXU       0.017500
     11 C21         -3.1790     1.8730    -1.0430 c          1 NXU       0.733000
     12 O5          -3.5030     3.0540    -1.0460 o          1 NXU      -0.709000
     13 O4          -3.0770     1.2410    -2.0880 o          1 NXU      -0.709000
     14 N2          -1.5500     0.3010     0.3730 n7         1 NXU      -0.834400
     15 C14         -1.2090    -3.3090    -1.0520 c3         1 NXU       0.156600
     16 O3          -1.1740    -2.9550    -2.4460 oh         1 NXU      -0.651000
     17 C1           2.2160     0.0650    -0.1340 ca         1 NXU      -0.296600
     18 C2           1.7370     1.1150    -0.9540 ca         1 NXU       0.239100
     19 C3           2.6290     2.0520    -1.4910 ca         1 NXU      -0.142000
     20 O1           0.4100     1.2840    -1.2450 oh         1 NXU      -0.556100
     21 C9           3.6070    -0.0130     0.1530 ca         1 NXU       0.052000
     22 C8           4.1510    -1.0510     0.9490 ca         1 NXU      -0.107000
     23 C7           5.5300    -1.1080     1.2120 ca         1 NXU      -0.109000
     24 C6           6.3900    -0.1370     0.6810 ca         1 NXU      -0.142000
     25 C5           5.8720     0.8890    -0.1220 ca         1 NXU      -0.084000
     26 C10          4.4910     0.9520    -0.3900 ca         1 NXU      -0.091000
     27 C4           3.9990     1.9780    -1.2110 ca         1 NXU      -0.067000
     28 H1           0.6460    -1.3440    -1.4600 hn         1 NXU       0.330500
     29 H2          -0.8470    -2.4480     0.8710 h1         1 NXU       0.082700
     30 H3          -2.3430    -0.8760    -1.2540 h2         1 NXU       0.147700
     31 H4          -3.2260     0.6350     3.0350 hc         1 NXU       0.037033
     32 H5          -4.4920     1.7840     2.5780 hc         1 NXU       0.037033
     33 H6          -4.9100     0.1000     2.9360 hc         1 NXU       0.037033
     34 H7          -6.0790    -0.1330     0.7600 hc         1 NXU       0.037033
     35 H8          -5.6940     1.5110     0.2370 hc         1 NXU       0.037033
     36 H9          -5.2630     0.1220    -0.7810 hc         1 NXU       0.037033
     37 H10         -2.5510     2.0750     0.9910 h1         1 NXU       0.065700
     38 H12         -1.3350     0.0890     1.3550 hn         1 NXU       0.399000
     39 H14         -0.4730    -4.0990    -0.8470 h1         1 NXU       0.028700
     40 H15         -2.1980    -3.7010    -0.7810 h1         1 NXU       0.028700
     41 H16         -1.3430    -3.7780    -2.9560 ho         1 NXU       0.436000
     42 H17          2.2520     2.8530    -2.1220 ha         1 NXU       0.133000
     43 H18         -0.1750     0.8400    -0.5660 ho         1 NXU       0.550000
     44 H19          3.5220    -1.8300     1.3680 ha         1 NXU       0.122000
     45 H20          5.9320    -1.9110     1.8270 ha         1 NXU       0.100000
     46 H21          7.4580    -0.1830     0.8850 ha         1 NXU       0.100000
     47 H22          6.5470     1.6350    -0.5380 ha         1 NXU       0.100000
     48 H23          4.6750     2.7190    -1.6330 ha         1 NXU       0.105000
@<TRIPOS>BOND
     1     1     2 2   
     2     2     3 1   
     3     2    17 1   
     4     3     4 1   
     5     3    28 1   
     6     4     5 1   
     7     4    15 1   
     8     4    29 1   
     9     5     6 1   
    10     5    14 1   
    11     5    30 1   
    12     6     7 1   
    13     7     8 1   
    14     7     9 1   
    15     7    10 1   
    16     8    31 1   
    17     8    32 1   
    18     8    33 1   
    19     9    34 1   
    20     9    35 1   
    21     9    36 1   
    22    10    11 1   
    23    10    14 1   
    24    10    37 1   
    25    11    12 1   
    26    11    13 1   
    27    14    38 1   
    28    15    16 1   
    29    15    39 1   
    30    15    40 1   
    31    16    41 1   
    32    17    18 ar  
    33    17    21 ar  
    34    18    19 ar  
    35    18    20 1   
    36    19    27 ar  
    37    19    42 1   
    38    20    43 1   
    39    21    22 ar  
    40    21    26 ar  
    41    22    23 ar  
    42    22    44 1   
    43    23    24 ar  
    44    23    45 1   
    45    24    25 ar  
    46    24    46 1   
    47    25    26 ar  
    48    25    47 1   
    49    26    27 ar  
    50    27    48 1   
@<TRIPOS>SUBSTRUCTURE
     1 NXU         1 TEMP              0 ****  ****    0 ROOT
