@<TRIPOS>MOLECULE
NXU
   48    50     1     0     0
SMALL
abcg2


@<TRIPOS>ATOM
      1 O2           1.0020    -0.7010     1.7880 o          1 NXU      -0.615100
      2 C11          1.1570    -0.6770     0.5750 c          1 NXU       0.622700
      3 N1           0.4340    -1.4220    -0.2850 ns         1 NXU      -0.491900
      4 C12         -0.8760    -1.9550     0.0410 c3         1 NXU       0.106700
      5 C13         -1.9160    -0.9190    -0.3870 c5         1 NXU       0.312500
      6 S1          -3.6290    -1.3850     0.0940 ss         1 NXU      -0.573000
      7 C15         -4.0330     0.2990     0.7300 c5         1 NXU       0.132000
      8 C19         -4.0530     0.2640     2.2570 c3         1 NXU      -0.073100
      9 C20         -5.4030     0.7200     0.2150 c3         1 NXU      -0.073100
     10 C16         -2.8550     1.1910     0.2320 c5         1 NXU       0.017500
     11 C21         -3.1210     1.8730    -1.1280 c          1 NXU       0.733000
     12 O5          -3.6820     2.9830    -1.0580 o          1 NXU      -0.709000
     13 O4          -2.7730     1.2740    -2.1610 o          1 NXU      -0.709000
     14 N2          -1.6470     0.3660     0.2290 n7         1 NXU      -0.834400
     15 C14         -1.0770    -3.3120    -0.6070 c3         1 NXU       0.156600
     16 O3          -0.9930    -3.1630    -2.0040 oh         1 NXU      -0.651000
     17 C1           2.1550     0.2210    -0.0810 ca         1 NXU      -0.296600
     18 C2           1.7010     1.3020    -0.8170 ca         1 NXU       0.239100
     19 C3           2.6470     2.1960    -1.3860 ca         1 NXU      -0.142000
     20 O1           0.4240     1.6080    -1.0480 oh         1 NXU      -0.556100
     21 C9           3.5480     0.0170     0.1250 ca         1 NXU       0.052000
     22 C8           4.0590    -1.0770     0.8670 ca         1 NXU      -0.107000
     23 C7           5.4090    -1.2520     1.0230 ca         1 NXU      -0.109000
     24 C6           6.3260    -0.3490     0.4530 ca         1 NXU      -0.142000
     25 C5           5.8620     0.7150    -0.2740 ca         1 NXU      -0.084000
     26 C10          4.4770     0.9180    -0.4550 ca         1 NXU      -0.091000
     27 C4           3.9830     2.0080    -1.2120 ca         1 NXU      -0.067000
     28 H1           0.6510    -1.3370    -1.2680 hn         1 NXU       0.330500
     29 H2          -0.9300    -2.0980     1.1220 h1         1 NXU       0.082700
     30 H3          -1.9000    -0.7900    -1.4660 h2         1 NXU       0.147700
     31 H4          -3.0830    -0.0080     2.6780 hc         1 NXU       0.037033
     32 H5          -4.3250     1.2460     2.6520 hc         1 NXU       0.037033
     33 H6          -4.7840    -0.4580     2.6230 hc         1 NXU       0.037033
     34 H7          -6.1780     0.0730     0.6290 hc         1 NXU       0.037033
     35 H8          -5.6240     1.7420     0.5240 hc         1 NXU       0.037033
     36 H9          -5.4660     0.6670    -0.8700 hc         1 NXU       0.037033
     37 H10         -2.7040     1.9790     0.9740 h1         1 NXU       0.065700
     38 H12         -1.3830     0.2130     1.1980 hn         1 NXU       0.399000
     39 H14         -0.3070    -3.9900    -0.2210 h1         1 NXU       0.028700
     40 H15         -2.0480    -3.7160    -0.2930 h1         1 NXU       0.028700
     41 H16         -1.0200    -4.0370    -2.4050 ho         1 NXU       0.436000
     42 H17          2.2800     3.0400    -1.9580 ha         1 NXU       0.133000
     43 H18         -0.2760     1.0910    -0.5500 ho         1 NXU       0.550000
     44 H19          3.3830    -1.7900     1.3210 ha         1 NXU       0.122000
     45 H20          5.7740    -2.0970     1.5910 ha         1 NXU       0.100000
     46 H21          7.3890    -0.5010     0.5870 ha         1 NXU       0.100000
     47 H22          6.5550     1.4160    -0.7240 ha         1 NXU       0.100000
     48 H23          4.6860     2.7020    -1.6560 ha         1 NXU       0.105000
@<TRIPOS>BOND
     1     1     2 2   
     2     2     3 1   
     3     2    17 1   
     4     3     4 1   
     5     3    28 1   
     6     4     5 1   
     7     4    15 1   
     8     4    29 1   
     9     5     6 1   
    10     5    14 1   
    11     5    30 1   
    12     6     7 1   
    13     7     8 1   
    14     7     9 1   
    15     7    10 1   
    16     8    31 1   
    17     8    32 1   
    18     8    33 1   
    19     9    34 1   
    20     9    35 1   
    21     9    36 1   
    22    10    11 1   
    23    10    14 1   
    24    10    37 1   
    25    11    12 1   
    26    11    13 1   
    27    14    38 1   
    28    15    16 1   
    29    15    39 1   
    30    15    40 1   
    31    16    41 1   
    32    17    18 ar  
    33    17    21 ar  
    34    18    19 ar  
    35    18    20 1   
    36    19    27 ar  
    37    19    42 1   
    38    20    43 1   
    39    21    22 ar  
    40    21    26 ar  
    41    22    23 ar  
    42    22    44 1   
    43    23    24 ar  
    44    23    45 1   
    45    24    25 ar  
    46    24    46 1   
    47    25    26 ar  
    48    25    47 1   
    49    26    27 ar  
    50    27    48 1   
@<TRIPOS>SUBSTRUCTURE
     1 NXU         1 TEMP              0 ****  ****    0 ROOT
