@<TRIPOS>MOLECULE
NXW
   60    62     1     0     0
SMALL
No Charge or Current Charge


@<TRIPOS>ATOM
      1 C1          -1.9790    -3.7420    -0.1970 cg         1 NXW      -0.198000
      2 C2          -0.7780    -3.9170    -0.0680 ch         1 NXW      -0.023000
      3 C3          -5.6040    -4.3590    -0.8930 ca         1 NXW      -0.086000
      4 C4          -4.2260    -4.5770    -0.7430 ca         1 NXW      -0.127000
      5 C5           1.1550    -5.3930     0.2420 ca         1 NXW      -0.112000
      6 C6           2.5390    -5.5730     0.3910 ca         1 NXW      -0.088000
      7 C7           4.4760     1.1920    -1.8250 ca         1 NXW      -0.091000
      8 C8          -6.1440    -3.0850    -0.6460 ca         1 NXW      -0.182000
      9 C9           5.2920     2.3260    -1.9880 ca         1 NXW      -0.099000
     10 C10         -3.9300    -2.2460    -0.1020 ca         1 NXW      -0.123000
     11 C11          1.4910    -2.9910     0.0630 ca         1 NXW      -0.126000
     12 C12          4.1180     1.7860     0.5070 ca         1 NXW      -0.089000
     13 C13         -3.3880    -3.5210    -0.3480 ca         1 NXW       0.095000
     14 C14          0.6270    -4.1020     0.0810 ca         1 NXW      -0.018000
     15 C15          3.4120    -4.4650     0.3830 ca         1 NXW      -0.105600
     16 C16          3.8850     0.9180    -0.5770 ca         1 NXW      -0.026300
     17 C17         -5.3180    -2.0180    -0.2480 ca         1 NXW      -0.022000
     18 C18          2.8860    -3.1600     0.2090 ca         1 NXW      -0.089000
     19 C19          5.5220     3.1920    -0.9060 ca         1 NXW       0.107000
     20 C20          4.9330     2.9200     0.3470 ca         1 NXW       0.121000
     21 C21          4.8930    -4.7100     0.5520 c          1 NXW       0.709600
     22 C22         -5.4470     0.4690     0.4060 c          1 NXW       0.599100
     23 C23         -6.9830     7.9060     0.3930 c3         1 NXW       0.146100
     24 C24          3.0070    -0.3100    -0.3990 c3         1 NXW      -0.002100
     25 C25         -6.5400     1.5810     0.5060 c3         1 NXW       0.079800
     26 C26         -6.4540     5.4650     0.3820 c3         1 NXW       0.151800
     27 C27         -7.0580     4.0450     0.5740 c3         1 NXW       0.156800
     28 N28         -5.9410    -0.7590    -0.0190 ns         1 NXW      -0.153000
     29 N29         -7.4710     6.5260     0.5870 n7         1 NXW      -0.860400
     30 N30         -6.0360     2.9890     0.3900 n7         1 NXW      -0.838400
     31 O31          5.4240    -4.3570     1.5960 o          1 NXW      -0.693500
     32 O32         -4.2700     0.6790     0.6890 o          1 NXW      -0.546100
     33 O33          5.4710    -5.3340    -0.3270 o          1 NXW      -0.693500
     34 S34          4.0140    -1.7520     0.1600 ss         1 NXW       0.000000
     35 Cl35         6.5510     4.6060    -1.1440 cl         1 NXW      -0.200000
     36 Cl36         5.2000     3.9830     1.7300 cl         1 NXW      -0.195000
     37 H3          -6.2540    -5.1760    -1.1990 ha         1 NXW       0.106000
     38 H4          -3.8100    -5.5630    -0.9340 ha         1 NXW       0.123000
     39 H5           0.4950    -6.2580     0.2540 ha         1 NXW       0.100000
     40 H6           2.9400    -6.5760     0.5180 ha         1 NXW       0.137000
     41 H8          -7.2140    -2.9300    -0.7660 ha         1 NXW       0.099000
     42 H10         -3.2560    -1.4500     0.1990 ha         1 NXW       0.156000
     43 H11          1.0590    -2.0030    -0.0630 ha         1 NXW       0.102000
     44 H12          3.6690     1.5820     1.4760 ha         1 NXW       0.136000
     45 H23         -6.1750     8.1390     1.1000 h1         1 NXW       0.029700
     46 H23A        -6.5990     8.0450    -0.6270 h1         1 NXW       0.029700
     47 H23B        -7.7940     8.6280     0.5520 h1         1 NXW       0.029700
     48 H24          2.2310    -0.1050     0.3480 h1         1 NXW       0.063200
     49 H24A         2.5210    -0.5630    -1.3490 h1         1 NXW       0.063200
     50 H25         -7.2810     1.3870    -0.2810 h1         1 NXW       0.042700
     51 H25A        -7.0500     1.4340     1.4680 h1         1 NXW       0.042700
     52 H26         -5.6250     5.5950     1.0910 h1         1 NXW       0.041200
     53 H26A        -6.0360     5.5320    -0.6320 h1         1 NXW       0.041200
     54 H27         -7.4920     3.9770     1.5810 h1         1 NXW       0.031700
     55 H27A        -7.8740     3.9100    -0.1490 h1         1 NXW       0.031700
     56 HN28        -6.9360    -0.7620    -0.2030 hn         1 NXW       0.141000
     57 HN29        -7.8290     6.4470     1.5480 hn         1 NXW       0.400000
     58 HN30        -5.2930     3.1260     1.0910 hn         1 NXW       0.423000
     59 H7           4.3060     0.5260    -2.6680 ha         1 NXW       0.127000
     60 H9           5.7460     2.5330    -2.9540 ha         1 NXW       0.123000
@<TRIPOS>BOND
     1     1     2 3   
     2     1    13 1   
     3     2    14 1   
     4     3     4 ar  
     5     3     8 ar  
     6     3    37 1   
     7     4    13 ar  
     8     4    38 1   
     9     5     6 ar  
    10     5    14 ar  
    11     5    39 1   
    12     6    15 ar  
    13     6    40 1   
    14     7     9 ar  
    15     7    16 ar  
    16     7    59 1   
    17     8    17 ar  
    18     8    41 1   
    19     9    19 ar  
    20     9    60 1   
    21    10    13 ar  
    22    10    17 ar  
    23    10    42 1   
    24    11    14 ar  
    25    11    18 ar  
    26    11    43 1   
    27    12    16 ar  
    28    12    20 ar  
    29    12    44 1   
    30    15    18 ar  
    31    15    21 1   
    32    16    24 1   
    33    17    28 1   
    34    18    34 1   
    35    19    20 ar  
    36    19    35 1   
    37    20    36 1   
    38    21    31 1   
    39    21    33 1   
    40    22    25 1   
    41    22    28 1   
    42    22    32 2   
    43    23    29 1   
    44    23    45 1   
    45    23    46 1   
    46    23    47 1   
    47    24    34 1   
    48    24    48 1   
    49    24    49 1   
    50    25    30 1   
    51    25    50 1   
    52    25    51 1   
    53    26    27 1   
    54    26    29 1   
    55    26    52 1   
    56    26    53 1   
    57    27    30 1   
    58    27    54 1   
    59    27    55 1   
    60    28    56 1   
    61    29    57 1   
    62    30    58 1   
@<TRIPOS>SUBSTRUCTURE
     1 NXW         1 TEMP              0 ****  ****    0 ROOT
