@<TRIPOS>MOLECULE
NXW
   60    62     1     0     0
SMALL
bcc


@<TRIPOS>ATOM
      1 C1          -1.9860    -3.6830    -0.1320 cg         1 NXW      -0.198000
      2 C2          -0.7980    -3.8470     0.0180 ch         1 NXW      -0.023000
      3 C3          -5.5950    -4.3280    -0.6560 ca         1 NXW      -0.104000
      4 C4          -4.2390    -4.5620    -0.4890 ca         1 NXW      -0.145000
      5 C5           1.1380    -5.2500     0.5670 ca         1 NXW      -0.130000
      6 C6           2.5020    -5.3550     0.7560 ca         1 NXW      -0.106000
      7 C7           4.1410     1.1410    -1.9400 ca         1 NXW      -0.109000
      8 C8          -6.0970    -3.0390    -0.6350 ca         1 NXW      -0.200000
      9 C9           4.9290     2.2620    -2.1380 ca         1 NXW      -0.117000
     10 C10         -3.8820    -2.1680    -0.2860 ca         1 NXW      -0.141000
     11 C11          1.4480    -2.9150     0.0490 ca         1 NXW      -0.144000
     12 C12          3.7410     1.8100     0.3260 ca         1 NXW      -0.107000
     13 C13         -3.3830    -3.4750    -0.3050 ca         1 NXW       0.095000
     14 C14          0.6010    -4.0130     0.2120 ca         1 NXW      -0.018000
     15 C15          3.3640    -4.2730     0.6030 ca         1 NXW      -0.105600
     16 C16          3.5320     0.9090    -0.7100 ca         1 NXW      -0.026300
     17 C17         -5.2470    -1.9450    -0.4470 ca         1 NXW       0.070600
     18 C18          2.8250    -3.0250     0.2370 ca         1 NXW       0.037900
     19 C19          5.1270     3.1630    -1.1020 ca         1 NXW       0.015400
     20 C20          4.5300     2.9340     0.1320 ca         1 NXW       0.029400
     21 C21          4.8480    -4.4800     0.8430 c          1 NXW       0.920200
     22 C22         -5.2890     0.5330    -0.1780 c          1 NXW       0.666100
     23 C23         -6.5660     7.5770     1.2440 c3         1 NXW       0.146100
     24 C24          2.7050    -0.3190    -0.4820 c3         1 NXW      -0.050000
     25 C25         -6.3020     1.6620    -0.2510 c3         1 NXW       0.079800
     26 C26         -6.1270     5.2580     0.7550 c3         1 NXW       0.151800
     27 C27         -6.7220     3.9810     0.1880 c3         1 NXW       0.156800
     28 N28         -5.8420    -0.6830    -0.4330 ns         1 NXW      -0.479100
     29 N29         -7.0990     6.3300     0.7360 n7         1 NXW      -0.805200
     30 N30         -5.7550     2.9010     0.2320 n7         1 NXW      -0.783200
     31 O31          5.5640    -3.4680     0.7030 o          1 NXW      -0.798800
     32 O32         -4.1160     0.7100     0.0820 o          1 NXW      -0.546100
     33 O33          5.2230    -5.6220     1.1590 o          1 NXW      -0.798800
     34 S34          3.8850    -1.6240     0.0200 ss         1 NXW      -0.079000
     35 CL35         6.1060     4.5560    -1.3600 cl         1 NXW      -0.108400
     36 CL36         4.7610     4.0360     1.4360 cl         1 NXW      -0.103400
     37 H3          -6.2720    -5.1590    -0.8020 ha         1 NXW       0.124000
     38 H4          -3.8460    -5.5690    -0.5010 ha         1 NXW       0.141000
     39 H5           0.4930    -6.1080     0.6970 ha         1 NXW       0.118000
     40 H6           2.9300    -6.3080     1.0380 ha         1 NXW       0.155000
     41 H8          -7.1610    -2.8790    -0.7610 ha         1 NXW       0.117000
     42 H10         -3.1970    -1.3490    -0.1440 ha         1 NXW       0.174000
     43 H11          0.9940    -1.9760    -0.2290 ha         1 NXW       0.120000
     44 H12          3.2840     1.6440     1.2920 ha         1 NXW       0.154000
     45 H23         -6.1540     7.5110     2.2610 h1         1 NXW       0.029700
     46 H23A        -5.7650     7.9310     0.5920 h1         1 NXW       0.029700
     47 H23B        -7.3460     8.3390     1.2500 h1         1 NXW       0.029700
     48 H24          1.9670    -0.1420     0.3010 h1         1 NXW       0.063200
     49 H24A         2.1820    -0.6050    -1.3960 h1         1 NXW       0.063200
     50 H25         -6.5910     1.7820    -1.3010 h1         1 NXW       0.042700
     51 H25A        -7.2190     1.3470     0.2750 h1         1 NXW       0.042700
     52 H26         -5.7350     5.0580     1.7680 h1         1 NXW       0.041200
     53 H26A        -5.2670     5.5550     0.1470 h1         1 NXW       0.041200
     54 H27         -7.6500     3.7360     0.7330 h1         1 NXW       0.031700
     55 H27A        -7.0120     4.1520    -0.8530 h1         1 NXW       0.031700
     56 HN28        -6.8380    -0.6870    -0.5960 hn         1 NXW       0.307500
     57 HN29        -7.8950     6.0610     1.3010 hn         1 NXW       0.344800
     58 HN30        -5.4390     2.7790     1.1870 hn         1 NXW       0.367800
     59 H7           3.9960     0.4440    -2.7560 ha         1 NXW       0.145000
     60 H9           5.3940     2.4390    -3.0980 ha         1 NXW       0.141000
@<TRIPOS>BOND
     1     1     2 3   
     2     1    13 1   
     3     2    14 1   
     4     3     4 ar  
     5     3     8 ar  
     6     3    37 1   
     7     4    13 ar  
     8     4    38 1   
     9     5     6 ar  
    10     5    14 ar  
    11     5    39 1   
    12     6    15 ar  
    13     6    40 1   
    14     7     9 ar  
    15     7    16 ar  
    16     7    59 1   
    17     8    17 ar  
    18     8    41 1   
    19     9    19 ar  
    20     9    60 1   
    21    10    13 ar  
    22    10    17 ar  
    23    10    42 1   
    24    11    14 ar  
    25    11    18 ar  
    26    11    43 1   
    27    12    16 ar  
    28    12    20 ar  
    29    12    44 1   
    30    15    18 ar  
    31    15    21 1   
    32    16    24 1   
    33    17    28 1   
    34    18    34 1   
    35    19    20 ar  
    36    19    35 1   
    37    20    36 1   
    38    21    31 1   
    39    21    33 1   
    40    22    25 1   
    41    22    28 1   
    42    22    32 2   
    43    23    29 1   
    44    23    45 1   
    45    23    46 1   
    46    23    47 1   
    47    24    34 1   
    48    24    48 1   
    49    24    49 1   
    50    25    30 1   
    51    25    50 1   
    52    25    51 1   
    53    26    27 1   
    54    26    29 1   
    55    26    52 1   
    56    26    53 1   
    57    27    30 1   
    58    27    54 1   
    59    27    55 1   
    60    28    56 1   
    61    29    57 1   
    62    30    58 1   
@<TRIPOS>SUBSTRUCTURE
     1 NXW         1 TEMP              0 ****  ****    0 ROOT
