@<TRIPOS>MOLECULE
NXX
   68    72     1     0     0
SMALL
No Charge or Current Charge


@<TRIPOS>ATOM
      1 O7N         -8.5900     0.2360    -1.3000 o          1 NXX      -0.695000
      2 C7N         -7.6200    -0.4970    -1.1790 c          1 NXX       0.727600
      3 O8N         -7.5430    -1.6000    -1.7010 o          1 NXX      -0.695000
      4 C3N         -6.4500    -0.0150    -0.3470 ca         1 NXX      -0.184600
      5 C4N         -6.4840     1.2460     0.2790 ca         1 NXX      -0.001000
      6 C5N         -5.4010     1.6500     1.0720 ca         1 NXX      -0.148000
      7 C6N         -4.2780     0.8150     1.2130 ca         1 NXX       0.004700
      8 C2N         -5.3040    -0.8280    -0.1740 ca         1 NXX      -0.072000
      9 N1N         -4.1680    -0.4150     0.5440 na         1 NXX       0.021300
     10 C1M         -2.9440    -1.2430     0.5930 c5         1 NXX       0.283300
     11 C2M         -2.5050    -1.9070    -0.7690 c5         1 NXX       0.070300
     12 O2M         -2.8910    -3.2920    -0.8960 oh         1 NXX      -0.709000
     13 C3M         -0.9550    -1.7600    -0.7290 c5         1 NXX       0.105300
     14 O3M         -0.3770    -2.8230     0.0370 oh         1 NXX      -0.709000
     15 O4M         -1.7940    -0.4730     1.0450 os         1 NXX      -0.407000
     16 C4M         -0.8290    -0.3710    -0.0340 c5         1 NXX       0.153300
     17 C5M         -1.1610     0.8370    -0.9700 c3         1 NXX       0.216600
     18 O5M         -0.3080     1.9640    -0.7080 os         1 NXX      -0.556400
     19 PN          -0.3960     2.8490     0.6410 p5         1 NXX       1.467800
     20 O1N          0.2110     4.1830     0.3520 o          1 NXX      -0.851500
     21 O2N         -1.8150     2.9660     1.0920 o          1 NXX      -0.851500
     22 O3A          0.4700     1.9150     1.5700 os         1 NXX      -0.681800
     23 PA           1.1690     2.6950     2.7460 p5         1 NXX       1.455800
     24 O1A          2.4500     3.3590     2.3540 o          1 NXX      -0.846500
     25 O2A          0.2550     3.6190     3.4850 o          1 NXX      -0.846500
     26 O5B          1.4710     1.4310     3.7080 os         1 NXX      -0.560400
     27 C5B          2.6140     0.5740     3.5330 c3         1 NXX       0.210600
     28 C4B          2.3450    -0.5220     2.4630 c5         1 NXX       0.158300
     29 C3B          3.2210    -1.8220     2.6670 c5         1 NXX       0.098300
     30 O3B          2.4660    -3.0290     2.5170 oh         1 NXX      -0.711000
     31 C2B          4.2410    -1.7060     1.4950 c5         1 NXX       0.069300
     32 O2P          4.8180    -2.9840     1.1510 oh         1 NXX      -0.705000
     33 C1B          3.2920    -1.1060     0.4130 c5         1 NXX       0.323300
     34 O4B          2.6860    -0.0290     1.1360 os         1 NXX      -0.412000
     35 N9A          3.8780    -0.5960    -0.8270 na         1 NXX      -0.293300
     36 C8A          5.2380    -0.3460    -1.0580 cc         1 NXX       0.461700
     37 N7A          5.4510     0.0680    -2.3260 nd         1 NXX      -0.568100
     38 C5A          4.1690     0.0630    -2.8870 ca         1 NXX      -0.084600
     39 C4A          3.2080    -0.3350    -1.9900 ca         1 NXX       0.108500
     40 C6A          3.7580     0.3980    -4.1960 ca         1 NXX       0.434900
     41 N6A          4.6270     0.8020    -5.1610 nv         1 NXX      -1.080900
     42 N1A          2.4650     0.3350    -4.5560 nb         1 NXX      -0.327000
     43 C2A          1.5980    -0.0700    -3.5950 ca         1 NXX       0.147900
     44 N3A          1.9040    -0.4150    -2.3210 nb         1 NXX      -0.209000
     45 H4N         -7.3470     1.9010     0.1720 ha         1 NXX       0.154000
     46 H5N         -5.4310     2.6110     1.5830 ha         1 NXX       0.175000
     47 H6N         -3.4400     1.1260     1.8410 h4         1 NXX       0.256000
     48 H2N         -5.2640    -1.8230    -0.6210 h4         1 NXX       0.179000
     49 H1M         -3.1530    -2.0250     1.3340 h2         1 NXX       0.095700
     50 H2M         -2.9100    -1.3210    -1.6090 h1         1 NXX       0.074700
     51 HO2M        -2.9470    -3.5050    -1.8600 ho         1 NXX       0.516000
     52 H3M         -0.5290    -1.7460    -1.7420 h1         1 NXX       0.059700
     53 HO3M        -1.0700    -3.5280     0.0200 ho         1 NXX       0.508000
     54 H4M          0.1810    -0.2410     0.3740 h1         1 NXX       0.109700
     55 H5M1        -1.0140     0.5220    -2.0110 h1         1 NXX       0.017200
     56 H5M2        -2.2170     1.1160    -0.8670 h1         1 NXX       0.017200
     57 H5B1         3.5120     1.1450     3.2610 h1         1 NXX       0.014700
     58 H5B2         2.8260     0.0790     4.4890 h1         1 NXX       0.014700
     59 H4B          1.2770    -0.7810     2.4890 h1         1 NXX       0.098700
     60 H3B          3.7380    -1.8180     3.6370 h1         1 NXX       0.050700
     61 HO3B         3.0590    -3.6160     1.9850 ho         1 NXX       0.502000
     62 H2B          5.0270    -0.9800     1.7510 h1         1 NXX       0.070700
     63 HO2P         5.6170    -3.1180     1.7180 ho         1 NXX       0.499000
     64 H1B          2.5280    -1.8380     0.1200 h2         1 NXX       0.097700
     65 H8A          5.9990    -0.4790    -0.2960 h5         1 NXX       0.152800
     66 H6A1         5.5630     1.0620    -4.8540 hn         1 NXX       0.498500
     67 H6A2         4.2560     1.2940    -5.9700 hn         1 NXX       0.498500
     68 H2A          0.5470    -0.1270    -3.8760 h5         1 NXX       0.024100
@<TRIPOS>BOND
     1     1     2 1   
     2     2     3 1   
     3     2     4 1   
     4     4     5 ar  
     5     4     8 ar  
     6     5     6 ar  
     7     5    45 1   
     8     6     7 ar  
     9     6    46 1   
    10     7     9 2   
    11     7    47 1   
    12     8     9 1   
    13     8    48 1   
    14     9    10 1   
    15    10    11 1   
    16    10    15 1   
    17    10    49 1   
    18    11    12 1   
    19    11    13 1   
    20    11    50 1   
    21    12    51 1   
    22    13    14 1   
    23    13    16 1   
    24    13    52 1   
    25    14    53 1   
    26    15    16 1   
    27    16    17 1   
    28    16    54 1   
    29    17    18 1   
    30    17    55 1   
    31    17    56 1   
    32    18    19 1   
    33    19    20 1   
    34    19    21 1   
    35    19    22 1   
    36    22    23 1   
    37    23    24 1   
    38    23    25 1   
    39    23    26 1   
    40    26    27 1   
    41    27    28 1   
    42    27    57 1   
    43    27    58 1   
    44    28    29 1   
    45    28    34 1   
    46    28    59 1   
    47    29    30 1   
    48    29    31 1   
    49    29    60 1   
    50    30    61 1   
    51    31    32 1   
    52    31    33 1   
    53    31    62 1   
    54    32    63 1   
    55    33    34 1   
    56    33    35 1   
    57    33    64 1   
    58    35    36 1   
    59    35    39 1   
    60    36    37 2   
    61    36    65 1   
    62    37    38 1   
    63    38    39 ar  
    64    38    40 ar  
    65    39    44 ar  
    66    40    41 1   
    67    40    42 ar  
    68    41    66 1   
    69    41    67 1   
    70    42    43 ar  
    71    43    44 ar  
    72    43    68 1   
@<TRIPOS>SUBSTRUCTURE
     1 NXX         1 TEMP              0 ****  ****    0 ROOT
