@<TRIPOS>MOLECULE
NXX
   68    72     1     0     0
SMALL
bcc


@<TRIPOS>ATOM
      1 O7N         -8.6300    -1.0850     3.9660 o          1 NXX      -0.800300
      2 C7N         -8.3180    -1.5100     2.8450 c          1 NXX       0.938200
      3 O8N         -8.8810    -2.3770     2.1570 o          1 NXX      -0.800300
      4 C3N         -7.0690    -0.8810     2.2250 ca         1 NXX      -0.184600
      5 C4N         -6.3310     0.1010     2.8750 ca         1 NXX      -0.019000
      6 C5N         -5.2040     0.6340     2.2680 ca         1 NXX      -0.166000
      7 C6N         -4.8250     0.1910     1.0220 ca         1 NXX      -0.013300
      8 C2N         -6.6400    -1.2910     0.9820 ca         1 NXX      -0.039300
      9 N1N         -5.5490    -0.7580     0.4100 na         1 NXX      -0.000100
     10 C1M         -5.2230    -1.1980    -0.9670 c5         1 NXX       0.230800
     11 C2M         -5.9220    -0.3240    -2.0090 c5         1 NXX       0.047100
     12 O2M         -7.2270    -0.7660    -2.2050 oh         1 NXX      -0.586800
     13 C3M         -4.9780    -0.5070    -3.2020 c5         1 NXX       0.082100
     14 O3M         -5.1860    -1.7500    -3.8170 oh         1 NXX      -0.586800
     15 O4M         -3.8690    -1.0860    -1.2000 os         1 NXX      -0.360600
     16 C4M         -3.6240    -0.5270    -2.5060 c5         1 NXX       0.130100
     17 C5M         -3.0020     0.8490    -2.3910 c3         1 NXX       0.193400
     18 O5M         -1.7990     0.7420    -1.6670 os         1 NXX      -0.533200
     19 PN          -1.4150     1.9890    -0.6600 p5         1 NXX       1.467800
     20 O1N         -1.1250     3.2150    -1.4620 o          1 NXX      -0.851500
     21 O2N         -2.4170     2.0360     0.4560 o          1 NXX      -0.851500
     22 O3A         -0.0310     1.2770    -0.1480 os         1 NXX      -0.681800
     23 PA           1.2260     2.1100     0.4990 p5         1 NXX       1.455800
     24 O1A          2.2980     2.2860    -0.5340 o          1 NXX      -0.846500
     25 O2A          0.7350     3.2820     1.2860 o          1 NXX      -0.846500
     26 O5B          1.6550     0.8910     1.5190 os         1 NXX      -0.537200
     27 C5B          2.7910     1.1120     2.3220 c3         1 NXX       0.187400
     28 C4B          3.4150    -0.2250     2.6720 c5         1 NXX       0.135100
     29 C3B          4.7270    -0.0550     3.4230 c5         1 NXX       0.075100
     30 O3B          4.9570    -1.2020     4.1990 oh         1 NXX      -0.588800
     31 C2B          5.7180     0.0250     2.2580 c5         1 NXX       0.046100
     32 O2P          7.0320    -0.3220     2.5740 oh         1 NXX      -0.582800
     33 C1B          5.1220    -1.0040     1.2940 c5         1 NXX       0.270800
     34 O4B          3.7400    -0.9610     1.4880 os         1 NXX      -0.365600
     35 N9A          5.4170    -0.7400    -0.0950 na         1 NXX      -0.264000
     36 C8A          4.8480     0.2110    -0.9030 cc         1 NXX       0.461700
     37 N7A          5.3500     0.2220    -2.1040 nd         1 NXX      -0.568100
     38 C5A          6.2990    -0.7660    -2.0920 ca         1 NXX      -0.215200
     39 C4A          6.3540    -1.3800    -0.8510 ca         1 NXX       0.436800
     40 C6A          7.1850    -1.2550    -3.0700 ca         1 NXX       0.763200
     41 N6A          7.2420    -0.7570    -4.3060 nv         1 NXX      -0.970500
     42 N1A          7.9980    -2.2630    -2.7320 nb         1 NXX      -0.853000
     43 C2A          7.9350    -2.7600    -1.4990 ca         1 NXX       0.673900
     44 N3A          7.1560    -2.3850    -0.5000 nb         1 NXX      -0.735000
     45 H4N         -6.6370     0.4410     3.8540 ha         1 NXX       0.172000
     46 H5N         -4.6080     1.3940     2.7510 ha         1 NXX       0.193000
     47 H6N         -3.9490     0.5910     0.5260 h4         1 NXX       0.274000
     48 H2N         -7.1600    -2.0590     0.4290 h4         1 NXX       0.197000
     49 H1M         -5.5640    -2.2370    -1.0320 h2         1 NXX       0.095700
     50 H2M         -5.8910     0.7230    -1.6820 h1         1 NXX       0.074700
     51 HO2M        -7.7630    -0.0370    -2.5330 ho         1 NXX       0.417000
     52 H3M         -5.0600     0.3230    -3.9150 h1         1 NXX       0.059700
     53 HO3M        -6.1280    -1.8350    -4.0080 ho         1 NXX       0.409000
     54 H4M         -2.9300    -1.1940    -3.0240 h1         1 NXX       0.109700
     55 H5M1        -2.8120     1.2230    -3.4030 h1         1 NXX       0.017200
     56 H5M2        -3.7070     1.5460    -1.9210 h1         1 NXX       0.017200
     57 H5B1         3.5270     1.7450     1.8110 h1         1 NXX       0.014700
     58 H5B2         2.5200     1.6220     3.2530 h1         1 NXX       0.014700
     59 H4B          2.7020    -0.8170     3.2530 h1         1 NXX       0.098700
     60 H3B          4.7340     0.8580     4.0340 h1         1 NXX       0.050700
     61 HO3B         5.8970    -1.2330     4.4110 ho         1 NXX       0.403000
     62 H2B          5.6630     1.0240     1.8070 h1         1 NXX       0.070700
     63 HO2P         7.4810     0.4530     2.9270 ho         1 NXX       0.400000
     64 H1B          5.5310    -1.9980     1.5080 h2         1 NXX       0.097700
     65 H8A          4.0460     0.8570    -0.5670 h5         1 NXX       0.152800
     66 H6A1         6.6540     0.0080    -4.5860 hn         1 NXX       0.443300
     67 H6A2         7.8990    -1.1240    -4.9720 hn         1 NXX       0.443300
     68 H2A          8.6170    -3.5780    -1.2920 h5         1 NXX       0.024100
@<TRIPOS>BOND
     1     1     2 1   
     2     2     3 1   
     3     2     4 1   
     4     4     5 ar  
     5     4     8 ar  
     6     5     6 ar  
     7     5    45 1   
     8     6     7 ar  
     9     6    46 1   
    10     7     9 2   
    11     7    47 1   
    12     8     9 1   
    13     8    48 1   
    14     9    10 1   
    15    10    11 1   
    16    10    15 1   
    17    10    49 1   
    18    11    12 1   
    19    11    13 1   
    20    11    50 1   
    21    12    51 1   
    22    13    14 1   
    23    13    16 1   
    24    13    52 1   
    25    14    53 1   
    26    15    16 1   
    27    16    17 1   
    28    16    54 1   
    29    17    18 1   
    30    17    55 1   
    31    17    56 1   
    32    18    19 1   
    33    19    20 1   
    34    19    21 1   
    35    19    22 1   
    36    22    23 1   
    37    23    24 1   
    38    23    25 1   
    39    23    26 1   
    40    26    27 1   
    41    27    28 1   
    42    27    57 1   
    43    27    58 1   
    44    28    29 1   
    45    28    34 1   
    46    28    59 1   
    47    29    30 1   
    48    29    31 1   
    49    29    60 1   
    50    30    61 1   
    51    31    32 1   
    52    31    33 1   
    53    31    62 1   
    54    32    63 1   
    55    33    34 1   
    56    33    35 1   
    57    33    64 1   
    58    35    36 1   
    59    35    39 1   
    60    36    37 2   
    61    36    65 1   
    62    37    38 1   
    63    38    39 ar  
    64    38    40 ar  
    65    39    44 ar  
    66    40    41 1   
    67    40    42 ar  
    68    41    66 1   
    69    41    67 1   
    70    42    43 ar  
    71    43    44 ar  
    72    43    68 1   
@<TRIPOS>SUBSTRUCTURE
     1 NXX         1 TEMP              0 ****  ****    0 ROOT
