@<TRIPOS>MOLECULE
NXY
   25    26     1     0     0
SMALL
bcc


@<TRIPOS>ATOM
      1 C1          -2.6880    -0.5010    -0.0070 cc         1 NXY      -0.043100
      2 C2          -3.8110     0.2840     0.0360 cd         1 NXY      -0.059700
      3 S3          -1.0820     0.1860    -0.1940 ss         1 NXY      -0.101000
      4 C4          -2.9940    -1.8900     0.1160 cc         1 NXY      -0.162000
      5 S5          -5.2310    -0.6660     0.2270 ss         1 NXY      -0.055800
      6 C6          -3.9210     1.7700    -0.0560 c          1 NXY       0.940200
      7 C7          -0.0420    -1.3150    -0.1700 c3         1 NXY      -0.022000
      8 C8          -4.3310    -2.1160     0.2490 cd         1 NXY      -0.181100
      9 O9          -2.8420     2.3780    -0.1990 o          1 NXY      -0.804800
     10 O10         -5.0690     2.2450     0.0200 o          1 NXY      -0.804800
     11 C11          1.3730    -0.8540    -0.3400 ca         1 NXY      -0.031300
     12 C12          2.1560    -0.5720     0.7730 ca         1 NXY      -0.107000
     13 C13          1.9100    -0.6540    -1.6080 ca         1 NXY      -0.109000
     14 C14          3.4560    -0.1160     0.6230 ca         1 NXY       0.028400
     15 C15          3.2070    -0.1970    -1.7640 ca         1 NXY      -0.117000
     16 C16          3.9860     0.0750    -0.6480 ca         1 NXY       0.015400
     17 CL17         4.4020     0.2090     2.0260 cl         1 NXY      -0.102400
     18 CL18         5.5990     0.6400    -0.8530 cl         1 NXY      -0.106400
     19 H4          -2.2650    -2.6860     0.1100 ha         1 NXY       0.122000
     20 H7          -0.1630    -1.8450     0.7750 h1         1 NXY       0.060700
     21 H7A         -0.3240    -1.9850    -0.9820 h1         1 NXY       0.060700
     22 H8          -4.8180    -3.0730     0.3600 h4         1 NXY       0.139000
     23 H12          1.7550    -0.7170     1.7680 ha         1 NXY       0.154000
     24 H13          1.3150    -0.8630    -2.4880 ha         1 NXY       0.146000
     25 H15          3.6190    -0.0510    -2.7520 ha         1 NXY       0.142000
@<TRIPOS>BOND
     1     1     2 2   
     2     1     3 1   
     3     1     4 1   
     4     2     5 1   
     5     2     6 1   
     6     3     7 1   
     7     4     8 2   
     8     4    19 1   
     9     5     8 1   
    10     6     9 1   
    11     6    10 1   
    12     7    11 1   
    13     7    20 1   
    14     7    21 1   
    15     8    22 1   
    16    11    12 ar  
    17    11    13 ar  
    18    12    14 ar  
    19    12    23 1   
    20    13    15 ar  
    21    13    24 1   
    22    14    16 ar  
    23    14    17 1   
    24    15    16 ar  
    25    15    25 1   
    26    16    18 1   
@<TRIPOS>SUBSTRUCTURE
     1 NXY         1 TEMP              0 ****  ****    0 ROOT
