@<TRIPOS>MOLECULE
NXY
   25    26     1     0     0
SMALL
No Charge or Current Charge


@<TRIPOS>ATOM
      1 C1          -2.7610    -0.5140     0.1780 cc         1 NXY      -0.170000
      2 C2          -3.8860     0.2840     0.0040 cd         1 NXY      -0.204600
      3 S3          -1.1440     0.2020     0.1020 ss         1 NXY      -0.022000
      4 C4          -3.0420    -1.8990     0.3070 cc         1 NXY      -0.144000
      5 S5          -5.3500    -0.7220     0.0610 ss         1 NXY       0.234000
      6 C6          -4.0010     1.7660    -0.2080 c          1 NXY       0.729600
      7 C7          -0.0360    -1.2510    -0.1470 c3         1 NXY       0.025900
      8 C8          -4.3770    -2.1900     0.2700 cd         1 NXY      -0.308000
      9 O9          -3.0100     2.4800    -0.2380 o          1 NXY      -0.699500
     10 O10         -5.1260     2.2260    -0.3420 o          1 NXY      -0.699500
     11 C11          1.4050    -0.8030    -0.3340 ca         1 NXY      -0.031300
     12 C12          2.2460    -0.6340     0.7830 ca         1 NXY      -0.089000
     13 C13          1.9070    -0.5460    -1.6240 ca         1 NXY      -0.091000
     14 C14          3.5770    -0.2160     0.6150 ca         1 NXY       0.120000
     15 C15          3.2380    -0.1280    -1.7960 ca         1 NXY      -0.099000
     16 C16          4.0760     0.0380    -0.6800 ca         1 NXY       0.107000
     17 Cl17         4.5980    -0.0160     2.0400 cl         1 NXY      -0.194000
     18 Cl18         5.7410     0.5650    -0.9300 cl         1 NXY      -0.198000
     19 H4          -2.2730    -2.6560     0.4240 ha         1 NXY       0.104000
     20 H7          -0.1090    -1.9100     0.7260 h1         1 NXY       0.060700
     21 H7A         -0.3720    -1.8070    -1.0320 h1         1 NXY       0.060700
     22 H8          -4.8570    -3.1570     0.3480 h4         1 NXY       0.121000
     23 H12          1.8670    -0.8260     1.7840 ha         1 NXY       0.136000
     24 H13          1.2650    -0.6700    -2.4940 ha         1 NXY       0.128000
     25 H15          3.6210     0.0690    -2.7950 ha         1 NXY       0.124000
@<TRIPOS>BOND
     1     1     2 2   
     2     1     3 1   
     3     1     4 1   
     4     2     5 1   
     5     2     6 1   
     6     3     7 1   
     7     4     8 2   
     8     4    19 1   
     9     5     8 1   
    10     6     9 1   
    11     6    10 1   
    12     7    11 1   
    13     7    20 1   
    14     7    21 1   
    15     8    22 1   
    16    11    12 ar  
    17    11    13 ar  
    18    12    14 ar  
    19    12    23 1   
    20    13    15 ar  
    21    13    24 1   
    22    14    16 ar  
    23    14    17 1   
    24    15    16 ar  
    25    15    25 1   
    26    16    18 1   
@<TRIPOS>SUBSTRUCTURE
     1 NXY         1 TEMP              0 ****  ****    0 ROOT
