@<TRIPOS>MOLECULE
NXZ
   48    51     1     0     0
SMALL
bcc


@<TRIPOS>ATOM
      1 N1           0.2730    -0.1550    -0.0970 nh         1 NXZ      -0.786300
      2 C2           1.9500    -0.8950     1.3610 c5         1 NXZ       0.129500
      3 C3           2.5410     0.0500     0.3150 c5         1 NXZ       0.090700
      4 C4           1.5180     0.0430    -0.8230 c5         1 NXZ       0.225800
      5 C5           0.4760    -0.5070     1.2980 c5         1 NXZ       0.226800
      6 C6          -4.6140     0.1440     0.1230 cp         1 NXZ      -0.155500
      7 C7          -5.7060     0.8340    -0.4060 ca         1 NXZ      -0.094500
      8 C8          -6.9320     0.8160     0.2410 ca         1 NXZ      -0.139500
      9 C9          -7.0910     0.0960     1.4180 ca         1 NXZ      -0.115000
     10 C10         -6.0140    -0.6050     1.9450 ca         1 NXZ      -0.139500
     11 C11         -4.7850    -0.5800     1.3040 ca         1 NXZ      -0.094500
     12 C12         -3.3080     0.1920    -0.5690 cp         1 NXZ       0.534800
     13 C13         -2.1220    -0.0210     0.1010 ca         1 NXZ      -0.433600
     14 C14         -0.9300     0.0480    -0.6480 ca         1 NXZ       0.723200
     15 N15         -0.9680     0.3340    -1.9570 nb         1 NXZ      -0.792000
     16 C16         -2.1620     0.5350    -2.4850 ca         1 NXZ       0.690900
     17 N17         -3.3330     0.4770    -1.8820 nb         1 NXZ      -0.754000
     18 N18          2.5220    -0.6650     2.6730 n8         1 NXZ      -0.883800
     19 N19          3.9320    -0.1500    -0.0540 n          1 NXZ      -0.471800
     20 C20          4.7880     1.0220     0.1480 c6         1 NXZ       0.109000
     21 C21          6.2650     0.7140     0.0570 c6         1 NXZ      -0.092400
     22 C22          6.5420    -0.1000    -1.1910 c6         1 NXZ      -0.074400
     23 C23          5.7840    -1.4100    -1.0860 c6         1 NXZ      -0.158400
     24 C24          4.3340    -1.2870    -0.6660 c          1 NXZ       0.705500
     25 O25          3.5700    -2.2260    -0.8640 o          1 NXZ      -0.647500
     26 H2           2.0500    -1.9300     1.0180 h1         1 NXZ       0.066700
     27 H3           2.5020     1.0440     0.7690 h1         1 NXZ       0.068700
     28 H4           1.6880    -0.7580    -1.5420 h1         1 NXZ       0.073200
     29 H4A          1.5150     0.9880    -1.3660 h1         1 NXZ       0.073200
     30 H5           0.2820     0.3430     1.9630 h1         1 NXZ       0.056200
     31 H5A         -0.1760    -1.3290     1.6020 h1         1 NXZ       0.056200
     32 H7          -5.5880     1.3960    -1.3230 ha         1 NXZ       0.141000
     33 H8          -7.7660     1.3670    -0.1750 ha         1 NXZ       0.131000
     34 H9          -8.0500     0.0760     1.9190 ha         1 NXZ       0.130000
     35 H10         -6.1310    -1.1790     2.8550 ha         1 NXZ       0.131000
     36 H11         -3.9640    -1.1490     1.7200 ha         1 NXZ       0.141000
     37 H13         -2.1030    -0.2010     1.1660 ha         1 NXZ       0.148000
     38 H16         -2.1780     0.7710    -3.5450 h5         1 NXZ       0.042100
     39 HN18         2.1010    -1.3020     3.3400 hn         1 NXZ       0.345800
     40 HN1A         3.5020    -0.9180     2.6530 hn         1 NXZ       0.345800
     41 H20          4.5250     1.7870    -0.5910 h1         1 NXZ       0.046200
     42 H20A         4.5560     1.4380     1.1300 h1         1 NXZ       0.046200
     43 H21          6.8130     1.6570     0.0530 hc         1 NXZ       0.053700
     44 H21A         6.5910     0.1590     0.9420 hc         1 NXZ       0.053700
     45 H22          6.2190     0.4550    -2.0760 hc         1 NXZ       0.052200
     46 H22A         7.6090    -0.2940    -1.3110 hc         1 NXZ       0.052200
     47 H23          5.7940    -1.9610    -2.0280 hc         1 NXZ       0.073200
     48 H23A         6.2670    -2.0600    -0.3500 hc         1 NXZ       0.073200
@<TRIPOS>BOND
     1     1     4 1   
     2     1     5 1   
     3     1    14 1   
     4     2     3 1   
     5     2     5 1   
     6     2    18 1   
     7     2    26 1   
     8     3     4 1   
     9     3    19 1   
    10     3    27 1   
    11     4    28 1   
    12     4    29 1   
    13     5    30 1   
    14     5    31 1   
    15     6     7 ar  
    16     6    11 ar  
    17     6    12 1   
    18     7     8 ar  
    19     7    32 1   
    20     8     9 ar  
    21     8    33 1   
    22     9    10 ar  
    23     9    34 1   
    24    10    11 ar  
    25    10    35 1   
    26    11    36 1   
    27    12    13 ar  
    28    12    17 ar  
    29    13    14 ar  
    30    13    37 1   
    31    14    15 ar  
    32    15    16 ar  
    33    16    17 ar  
    34    16    38 1   
    35    18    39 1   
    36    18    40 1   
    37    19    20 1   
    38    19    24 1   
    39    20    21 1   
    40    20    41 1   
    41    20    42 1   
    42    21    22 1   
    43    21    43 1   
    44    21    44 1   
    45    22    23 1   
    46    22    45 1   
    47    22    46 1   
    48    23    24 1   
    49    23    47 1   
    50    23    48 1   
    51    24    25 2   
@<TRIPOS>SUBSTRUCTURE
     1 NXZ         1 TEMP              0 ****  ****    0 ROOT
