@<TRIPOS>MOLECULE
NXZ
   48    51     1     0     0
SMALL
No Charge or Current Charge


@<TRIPOS>ATOM
      1 N1           0.2720    -0.0040    -0.0750 nh         1 NXZ      -0.786300
      2 C2           2.0080    -0.8460     1.3650 c5         1 NXZ       0.129500
      3 C3           2.5620     0.2450     0.3960 c5         1 NXZ       0.090700
      4 C4           1.5610     0.2270    -0.7960 c5         1 NXZ       0.225800
      5 C5           0.4910    -0.4410     1.3410 c5         1 NXZ       0.226800
      6 C6          -4.7530     0.1540     0.1090 cp         1 NXZ      -0.155500
      7 C7          -5.9160     0.7680    -0.4350 ca         1 NXZ      -0.076500
      8 C8          -7.1580     0.6840     0.2160 ca         1 NXZ      -0.121500
      9 C9          -7.2750    -0.0200     1.4240 ca         1 NXZ      -0.097000
     10 C10         -6.1460    -0.6400     1.9800 ca         1 NXZ      -0.121500
     11 C11         -4.9020    -0.5560     1.3310 ca         1 NXZ      -0.076500
     12 C12         -3.4230     0.2440    -0.5890 cp         1 NXZ       0.206500
     13 C13         -2.1870     0.0580     0.0770 ca         1 NXZ      -0.285000
     14 C14         -0.9990     0.1650    -0.6640 ca         1 NXZ       0.394900
     15 N15         -1.0280     0.4460    -1.9810 nb         1 NXZ      -0.266000
     16 C16         -2.2420     0.6160    -2.5370 ca         1 NXZ       0.164900
     17 N17         -3.4290     0.5310    -1.9070 nb         1 NXZ      -0.228000
     18 N18          2.6530    -0.8510     2.7070 n8         1 NXZ      -0.994200
     19 N19          3.9740    -0.0480    -0.0490 n          1 NXZ      -0.404800
     20 C20          4.9380     1.0790     0.0900 c6         1 NXZ       0.109000
     21 C21          6.4250     0.6820    -0.0040 c6         1 NXZ      -0.092400
     22 C22          6.6660    -0.2660    -1.1870 c6         1 NXZ      -0.074400
     23 C23          5.8260    -1.5410    -0.9810 c6         1 NXZ      -0.158400
     24 C24          4.3430    -1.2800    -0.6680 c          1 NXZ       0.563000
     25 O25          3.5240    -2.1320    -0.9780 o          1 NXZ      -0.572000
     26 H2           2.1130    -1.8530     0.9410 h1         1 NXZ       0.066700
     27 H3           2.5100     1.2260     0.8890 h1         1 NXZ       0.068700
     28 H4           1.7540    -0.5750    -1.5180 h1         1 NXZ       0.073200
     29 H4A          1.5810     1.1850    -1.3360 h1         1 NXZ       0.073200
     30 H5           0.2890     0.3850     2.0380 h1         1 NXZ       0.056200
     31 H5A         -0.1450    -1.2920     1.6200 h1         1 NXZ       0.056200
     32 H7          -5.8570     1.3260    -1.3670 ha         1 NXZ       0.123000
     33 H8          -8.0320     1.1660    -0.2180 ha         1 NXZ       0.113000
     34 H9          -8.2380    -0.0850     1.9270 ha         1 NXZ       0.112000
     35 H10         -6.2350    -1.1920     2.9130 ha         1 NXZ       0.113000
     36 H11         -4.0530    -1.0640     1.7810 ha         1 NXZ       0.123000
     37 H13         -2.1570    -0.1420     1.1400 ha         1 NXZ       0.130000
     38 H16         -2.2670     0.8460    -3.6000 h5         1 NXZ       0.042100
     39 HN18         2.3530    -1.6850     3.2270 hn         1 NXZ       0.401000
     40 HN1A         3.6630    -0.9950     2.5870 hn         1 NXZ       0.401000
     41 H20          4.7200     1.8060    -0.7050 h1         1 NXZ       0.046200
     42 H20A         4.7680     1.5900     1.0480 h1         1 NXZ       0.046200
     43 H21          7.0440     1.5840    -0.1070 hc         1 NXZ       0.053700
     44 H21A         6.7360     0.1960     0.9310 hc         1 NXZ       0.053700
     45 H22          6.3850     0.2240    -2.1300 hc         1 NXZ       0.052200
     46 H22A         7.7320    -0.5210    -1.2630 hc         1 NXZ       0.052200
     47 H23          5.9140    -2.2500    -1.8140 hc         1 NXZ       0.073200
     48 H23A         6.2270    -2.0520    -0.0960 hc         1 NXZ       0.073200
@<TRIPOS>BOND
     1     1     4 1   
     2     1     5 1   
     3     1    14 1   
     4     2     3 1   
     5     2     5 1   
     6     2    18 1   
     7     2    26 1   
     8     3     4 1   
     9     3    19 1   
    10     3    27 1   
    11     4    28 1   
    12     4    29 1   
    13     5    30 1   
    14     5    31 1   
    15     6     7 ar  
    16     6    11 ar  
    17     6    12 1   
    18     7     8 ar  
    19     7    32 1   
    20     8     9 ar  
    21     8    33 1   
    22     9    10 ar  
    23     9    34 1   
    24    10    11 ar  
    25    10    35 1   
    26    11    36 1   
    27    12    13 ar  
    28    12    17 ar  
    29    13    14 ar  
    30    13    37 1   
    31    14    15 ar  
    32    15    16 ar  
    33    16    17 ar  
    34    16    38 1   
    35    18    39 1   
    36    18    40 1   
    37    19    20 1   
    38    19    24 1   
    39    20    21 1   
    40    20    41 1   
    41    20    42 1   
    42    21    22 1   
    43    21    43 1   
    44    21    44 1   
    45    22    23 1   
    46    22    45 1   
    47    22    46 1   
    48    23    24 1   
    49    23    47 1   
    50    23    48 1   
    51    24    25 2   
@<TRIPOS>SUBSTRUCTURE
     1 NXZ         1 TEMP              0 ****  ****    0 ROOT
