@<TRIPOS>MOLECULE
NY0
   27    28     1     0     0
SMALL
No Charge or Current Charge


@<TRIPOS>ATOM
      1 C2          10.5380     8.2250    43.6560 c2         1 NY0       0.614600
      2 C5           9.9660    11.5650    42.4460 ca         1 NY0      -0.074000
      3 C6           8.9870    12.5700    42.4580 ca         1 NY0      -0.113000
      4 C7           7.7230    12.3050    43.0060 ca         1 NY0      -0.102000
      5 C8           7.4340    11.0360    43.5370 ca         1 NY0      -0.116000
      6 C11          9.2840     7.8690    44.4340 c6         1 NY0       0.019700
      7 C14          5.7540     8.4980    42.9500 c3         1 NY0      -0.151400
      8 C15          5.0480     7.3300    42.2220 c3         1 NY0      -0.079100
      9 O13          6.5960     7.1040    44.7170 o          1 NY0      -0.577100
     10 N10          8.1120     8.6530    43.9500 n          1 NY0      -0.235400
     11 N3          10.7080     9.3160    42.9860 ne         1 NY0      -0.678100
     12 C4           9.6890    10.2940    42.9790 ca         1 NY0       0.132400
     13 C9           8.4160    10.0190    43.5540 ca         1 NY0      -0.080000
     14 O1          11.5120     7.3280    43.6520 oh         1 NY0      -0.601600
     15 H17         10.9470    11.7710    42.0250 ha         1 NY0       0.131000
     16 H18          9.2080    13.5520    42.0460 ha         1 NY0       0.119000
     17 H19          6.9620    13.0830    43.0160 ha         1 NY0       0.118000
     18 H20          6.4500    10.8680    43.9650 ha         1 NY0       0.120000
     19 H21          9.0960     6.7930    44.3250 h1         1 NY0       0.095200
     20 H22          9.4500     8.0780    45.4990 h1         1 NY0       0.095200
     21 H23          6.1900     9.1780    42.2110 hc         1 NY0       0.065200
     22 H26          5.0040     9.0740    43.5030 hc         1 NY0       0.065200
     23 H25          4.3080     7.7150    41.5100 hc         1 NY0       0.043700
     24 H1           5.7750     6.7250    41.6660 hc         1 NY0       0.043700
     25 H24          4.5280     6.6790    42.9350 hc         1 NY0       0.043700
     26 H16         12.1870     7.7660    43.0960 ho         1 NY0       0.488000
     27 C12          6.8300     8.0380    43.9560 c          1 NY0       0.615100
@<TRIPOS>BOND
     1     1     6 1   
     2     1    11 2   
     3     1    14 1   
     4     2     3 ar  
     5     2    12 ar  
     6     2    15 1   
     7     3     4 ar  
     8     3    16 1   
     9     4     5 ar  
    10     4    17 1   
    11     5    13 ar  
    12     5    18 1   
    13     6    10 1   
    14     6    19 1   
    15     6    20 1   
    16     7     8 1   
    17     7    21 1   
    18     7    22 1   
    19     7    27 1   
    20     8    23 1   
    21     8    24 1   
    22     8    25 1   
    23     9    27 2   
    24    10    13 1   
    25    10    27 1   
    26    11    12 1   
    27    12    13 ar  
    28    14    26 1   
@<TRIPOS>SUBSTRUCTURE
     1 NY0         1 TEMP              0 ****  ****    0 ROOT
