@<TRIPOS>MOLECULE
NY0
   27    28     1     0     0
SMALL
abcg2


@<TRIPOS>ATOM
      1 C2          10.4160     8.2440    43.6250 c2         1 NY0       0.614600
      2 C5           9.8780    11.5050    42.4330 ca         1 NY0      -0.074000
      3 C6           8.9470    12.5270    42.5210 ca         1 NY0      -0.113000
      4 C7           7.7150    12.2920    43.1170 ca         1 NY0      -0.102000
      5 C8           7.4120    11.0340    43.6170 ca         1 NY0      -0.116000
      6 C11          9.2800     8.1030    44.6000 c6         1 NY0       0.019700
      7 C14          5.9200     8.4660    42.8400 c3         1 NY0      -0.151400
      8 C15          5.0630     7.3730    42.2200 c3         1 NY0      -0.079100
      9 O13          6.9360     6.7840    44.1910 o          1 NY0      -0.577100
     10 N10          8.1050     8.6960    43.9890 n          1 NY0      -0.235400
     11 N3          10.5500     9.2330    42.8390 ne         1 NY0      -0.678100
     12 C4           9.5880    10.2360    42.9270 ca         1 NY0       0.132400
     13 C9           8.3280     9.9980    43.4980 ca         1 NY0      -0.080000
     14 O1          11.2920     7.2550    43.6580 oh         1 NY0      -0.601600
     15 H17         10.8480    11.6760    41.9830 ha         1 NY0       0.131000
     16 H18          9.1870    13.5080    42.1340 ha         1 NY0       0.119000
     17 H19          6.9910    13.0910    43.2100 ha         1 NY0       0.118000
     18 H20          6.4630    10.8690    44.1080 ha         1 NY0       0.120000
     19 H21          9.0860     7.0600    44.8340 h1         1 NY0       0.095200
     20 H22          9.5340     8.6150    45.5350 h1         1 NY0       0.095200
     21 H23          6.3490     9.0990    42.0620 hc         1 NY0       0.065200
     22 H26          5.2850     9.1230    43.4410 hc         1 NY0       0.065200
     23 H25          4.3070     7.8250    41.5790 hc         1 NY0       0.043700
     24 H1           5.6550     6.6950    41.6060 hc         1 NY0       0.043700
     25 H24          4.5480     6.7830    42.9750 hc         1 NY0       0.043700
     26 H16         12.0070     7.4370    43.0290 ho         1 NY0       0.488000
     27 C12          7.0110     7.9060    43.7270 c          1 NY0       0.615100
@<TRIPOS>BOND
     1     1     6 1   
     2     1    11 2   
     3     1    14 1   
     4     2     3 ar  
     5     2    12 ar  
     6     2    15 1   
     7     3     4 ar  
     8     3    16 1   
     9     4     5 ar  
    10     4    17 1   
    11     5    13 ar  
    12     5    18 1   
    13     6    10 1   
    14     6    19 1   
    15     6    20 1   
    16     7     8 1   
    17     7    21 1   
    18     7    22 1   
    19     7    27 1   
    20     8    23 1   
    21     8    24 1   
    22     8    25 1   
    23     9    27 2   
    24    10    13 1   
    25    10    27 1   
    26    11    12 1   
    27    12    13 ar  
    28    14    26 1   
@<TRIPOS>SUBSTRUCTURE
     1 NY0         1 TEMP              0 ****  ****    0 ROOT
