@<TRIPOS>MOLECULE
NY1
   29    30     1     0     0
SMALL
No Charge or Current Charge


@<TRIPOS>ATOM
      1 N1           1.6410    -0.3720    -0.9380 nc         1 NY1      -0.633000
      2 C4           0.2880    -1.5540     0.7530 c3         1 NY1      -0.179700
      3 C5          -0.8190    -0.7590     1.4420 c          1 NY1       0.614100
      4 C6          -3.0280     0.4320     1.3950 c6         1 NY1       0.062000
      5 C7          -4.2880     0.7010     0.5330 c6         1 NY1       0.133600
      6 C8          -3.0930     0.3740    -1.5080 c6         1 NY1       0.133600
      7 C10          2.3340    -0.1240     1.2650 cd         1 NY1      -0.256000
      8 C1           3.1540     0.9050    -2.4030 c3         1 NY1      -0.129400
      9 C2           2.7000     0.4140    -1.0600 cd         1 NY1       0.450700
     10 C3           1.4370    -0.6720     0.3840 cc         1 NY1       0.305300
     11 C9          -1.7650     0.0700    -0.7660 c6         1 NY1       0.062000
     12 N2          -1.9210    -0.2890     0.6850 n          1 NY1      -0.420800
     13 O1          -0.7620    -0.5600     2.6490 o          1 NY1      -0.586100
     14 O2          -3.9150     1.2670    -0.7360 os         1 NY1      -0.445000
     15 S1           3.5300     0.8490     0.4280 ss         1 NY1      -0.049400
     16 H3           0.6530    -2.3180     1.4470 hc         1 NY1       0.069700
     17 H4          -0.0930    -2.0450    -0.1470 hc         1 NY1       0.069700
     18 H6          -3.3310    -0.1460     2.2790 h1         1 NY1       0.063200
     19 H7          -4.8350    -0.2380     0.3640 h1         1 NY1       0.052950
     20 H8          -4.9590     1.3960     1.0570 h1         1 NY1       0.052950
     21 H9          -2.8800     0.8300    -2.4850 h1         1 NY1       0.052950
     22 H10         -3.6440    -0.5620    -1.6840 h1         1 NY1       0.052950
     23 H11          2.3580    -0.2310     2.3430 h4         1 NY1       0.158000
     24 H13          2.3620     1.4830    -2.8950 hc         1 NY1       0.058367
     25 H14          4.0340     1.5510    -2.3110 hc         1 NY1       0.058367
     26 H15          3.4180     0.0660    -3.0560 hc         1 NY1       0.058367
     27 H18         -1.2660    -0.7380    -1.3150 h1         1 NY1       0.063200
     28 H19         -1.1150     0.9540    -0.8380 h1         1 NY1       0.063200
     29 H5          -2.6410     1.3950     1.7580 h1         1 NY1       0.063200
@<TRIPOS>BOND
     1     1     9 2   
     2     1    10 1   
     3     2     3 1   
     4     2    10 1   
     5     2    16 1   
     6     2    17 1   
     7     3    12 1   
     8     3    13 2   
     9     4     5 1   
    10     4    12 1   
    11     4    18 1   
    12     4    29 1   
    13     5    14 1   
    14     5    19 1   
    15     5    20 1   
    16     6    11 1   
    17     6    14 1   
    18     6    21 1   
    19     6    22 1   
    20     7    10 2   
    21     7    15 1   
    22     7    23 1   
    23     8     9 1   
    24     8    24 1   
    25     8    25 1   
    26     8    26 1   
    27     9    15 1   
    28    11    12 1   
    29    11    27 1   
    30    11    28 1   
@<TRIPOS>SUBSTRUCTURE
     1 NY1         1 TEMP              0 ****  ****    0 ROOT
