@<TRIPOS>MOLECULE
NY1
   29    30     1     0     0
SMALL
bcc


@<TRIPOS>ATOM
      1 N1           2.2210     0.5260    -0.7500 nc         1 NY1      -0.633000
      2 C4           0.0850    -0.6980    -0.4970 c3         1 NY1      -0.179700
      3 C5          -0.8140     0.3780     0.1000 c          1 NY1       0.681100
      4 C6          -3.0640     1.3090     0.2870 c6         1 NY1       0.062000
      5 C7          -4.2000     0.5940     0.9980 c6         1 NY1       0.110400
      6 C8          -3.9060    -1.3110    -0.3100 c6         1 NY1       0.110400
      7 C10          2.2230    -1.2130     0.7530 cd         1 NY1      -0.194400
      8 C1           4.4520     1.5800    -0.7790 c3         1 NY1      -0.129400
      9 C2           3.4440     0.5800    -0.3340 cd         1 NY1       0.450700
     10 C3           1.5150    -0.4770    -0.1420 cc         1 NY1       0.370600
     11 C9          -2.7570    -0.6670    -1.0700 c6         1 NY1       0.062000
     12 N2          -2.1210     0.3340    -0.2320 n          1 NY1      -0.487800
     13 O1          -0.3540     1.2340     0.8430 o          1 NY1      -0.586100
     14 O2          -4.8250    -0.3480     0.1540 os         1 NY1      -0.398600
     15 S1           3.8300    -0.6250     0.8500 ss         1 NY1      -0.194300
     16 H3          -0.2360    -1.6810    -0.1450 hc         1 NY1       0.069700
     17 H4          -0.0230    -0.7090    -1.5850 hc         1 NY1       0.069700
     18 H6          -2.5600     1.9860     0.9720 h1         1 NY1       0.063200
     19 H7          -3.8110     0.1020     1.9020 h1         1 NY1       0.052950
     20 H8          -4.9600     1.3140     1.3050 h1         1 NY1       0.052950
     21 H9          -4.4470    -1.9920    -0.9680 h1         1 NY1       0.052950
     22 H10         -3.5000    -1.8940     0.5290 h1         1 NY1       0.052950
     23 H11          1.8840    -2.0510     1.3410 h4         1 NY1       0.176000
     24 H13          4.5830     2.3600    -0.0280 hc         1 NY1       0.058367
     25 H14          5.4260     1.1230    -0.9520 hc         1 NY1       0.058367
     26 H15          4.1200     2.0500    -1.7020 hc         1 NY1       0.058367
     27 H18         -2.0560    -1.4400    -1.3740 h1         1 NY1       0.063200
     28 H19         -3.1320    -0.1880    -1.9800 h1         1 NY1       0.063200
     29 H5          -3.4600     1.9020    -0.5440 h1         1 NY1       0.063200
@<TRIPOS>BOND
     1     1     9 2   
     2     1    10 1   
     3     2     3 1   
     4     2    10 1   
     5     2    16 1   
     6     2    17 1   
     7     3    12 1   
     8     3    13 2   
     9     4     5 1   
    10     4    12 1   
    11     4    18 1   
    12     4    29 1   
    13     5    14 1   
    14     5    19 1   
    15     5    20 1   
    16     6    11 1   
    17     6    14 1   
    18     6    21 1   
    19     6    22 1   
    20     7    10 2   
    21     7    15 1   
    22     7    23 1   
    23     8     9 1   
    24     8    24 1   
    25     8    25 1   
    26     8    26 1   
    27     9    15 1   
    28    11    12 1   
    29    11    27 1   
    30    11    28 1   
@<TRIPOS>SUBSTRUCTURE
     1 NY1         1 TEMP              0 ****  ****    0 ROOT
