@<TRIPOS>MOLECULE
NY2
   24    26     1     0     0
SMALL
No Charge or Current Charge


@<TRIPOS>ATOM
      1 O01         -4.5680    -2.5620    -0.3270 o          1 NY2      -0.400000
      2 N02         -3.7660    -1.7650     0.1720 no         1 NY2       0.740200
      3 O03         -3.0950    -2.0150     1.1790 o          1 NY2      -0.400000
      4 C04         -3.9530    -0.3810    -0.1570 cc         1 NY2      -0.316200
      5 C05         -5.1440     0.2460    -0.4050 cd         1 NY2      -0.066000
      6 N06         -4.8370     1.5990    -0.4880 na         1 NY2       0.022800
      7 N07         -3.4790     1.8370    -0.3230 nd         1 NY2      -0.516800
      8 C08         -2.9520     0.6330    -0.1700 cc         1 NY2       0.400500
      9 C09         -1.5110     0.4570    -0.0730 cc         1 NY2      -0.284500
     10 C10         -0.8540    -0.8230    -0.2750 cc         1 NY2       0.459900
     11 N11          0.4550    -1.0610    -0.2480 nd         1 NY2      -0.653000
     12 C12          1.0900     0.1220     0.0380 cd         1 NY2       0.503500
     13 C13          2.4520     0.2490     0.0650 cc         1 NY2      -0.283500
     14 Br           3.7790    -1.0740    -0.1770 br         1 NY2       0.010300
     15 C15          2.8110     1.6470     0.3560 c          1 NY2       0.598200
     16 O16          3.9200     2.1230     0.5350 o          1 NY2      -0.512000
     17 N17          1.6230     2.3320     0.4290 ns         1 NY2      -0.425200
     18 N18          0.6130     1.3870     0.2850 na         1 NY2      -0.033800
     19 C19         -0.7530     1.6140     0.1480 cd         1 NY2       0.009000
     20 H1          -6.1590    -0.1380    -0.4650 h4         1 NY2       0.192000
     21 H2          -5.5010     2.3590    -0.6350 hn         1 NY2       0.392000
     22 H3          -1.3950    -1.7130    -0.5500 h4         1 NY2       0.046100
     23 H5           1.5440     3.1140     1.0700 hn         1 NY2       0.356500
     24 H6          -1.1180     2.6280     0.2680 h4         1 NY2       0.159000
@<TRIPOS>BOND
     1     1     2 1   
     2     2     3 1   
     3     2     4 1   
     4     4     5 2   
     5     4     8 1   
     6     5     6 1   
     7     5    20 1   
     8     6     7 1   
     9     6    21 1   
    10     7     8 2   
    11     8     9 1   
    12     9    10 1   
    13     9    19 2   
    14    10    11 2   
    15    10    22 1   
    16    11    12 1   
    17    12    13 2   
    18    12    18 1   
    19    13    14 1   
    20    13    15 1   
    21    15    16 2   
    22    15    17 1   
    23    17    18 1   
    24    17    23 1   
    25    18    19 1   
    26    19    24 1   
@<TRIPOS>SUBSTRUCTURE
     1 NY2         1 TEMP              0 ****  ****    0 ROOT
