@<TRIPOS>MOLECULE
NY2
   24    26     1     0     0
SMALL
bcc


@<TRIPOS>ATOM
      1 O01         -4.9410    -2.1990     0.8510 o          1 NY2      -0.210000
      2 N02         -3.9020    -1.6110     0.6430 no         1 NY2       0.360200
      3 O03         -2.8090    -2.0290     0.9570 o          1 NY2      -0.210000
      4 C04         -3.9770    -0.3490     0.0100 cc         1 NY2      -0.381500
      5 C05         -5.1530     0.3060    -0.2970 cd         1 NY2      -0.033300
      6 N06         -4.7740     1.4770    -0.7870 na         1 NY2       0.022400
      7 N07         -3.4550     1.6410    -0.8390 nd         1 NY2      -0.516800
      8 C08         -2.9320     0.5350    -0.3520 cc         1 NY2       0.465800
      9 C09         -1.4820     0.3970    -0.2500 cc         1 NY2      -0.349800
     10 C10         -0.7800    -0.7340    -0.7340 cc         1 NY2       0.525200
     11 N11          0.5180    -0.8600    -0.7010 nd         1 NY2      -0.653000
     12 C12          1.2290     0.1430    -0.1730 cd         1 NY2       0.503500
     13 C13          2.5750     0.3240     0.0250 cc         1 NY2      -0.283500
     14 BR           3.9180    -0.8700    -0.4010 br         1 NY2       0.010300
     15 C15          2.7910     1.6040     0.6330 c          1 NY2       0.740700
     16 O16          3.8070     2.1700     1.0020 o          1 NY2      -0.587500
     17 N17          1.5160     2.1480     0.7350 ns         1 NY2      -0.492200
     18 N18          0.5900     1.2800     0.2890 na         1 NY2      -0.084500
     19 C19         -0.7340     1.4280     0.2580 cd         1 NY2       0.041700
     20 H1          -6.1860     0.0210    -0.1890 h4         1 NY2       0.210000
     21 H2          -5.3800     2.2120    -1.1210 hn         1 NY2       0.341700
     22 H3          -1.3300    -1.5490    -1.1860 h4         1 NY2       0.046100
     23 H5           1.2400     2.9810     1.2350 hn         1 NY2       0.356500
     24 H6          -1.1480     2.3490     0.6440 h4         1 NY2       0.177000
@<TRIPOS>BOND
     1     1     2 1   
     2     2     3 1   
     3     2     4 1   
     4     4     5 2   
     5     4     8 1   
     6     5     6 1   
     7     5    20 1   
     8     6     7 1   
     9     6    21 1   
    10     7     8 2   
    11     8     9 1   
    12     9    10 1   
    13     9    19 2   
    14    10    11 2   
    15    10    22 1   
    16    11    12 1   
    17    12    13 2   
    18    12    18 1   
    19    13    14 1   
    20    13    15 1   
    21    15    16 2   
    22    15    17 1   
    23    17    18 1   
    24    17    23 1   
    25    18    19 1   
    26    19    24 1   
@<TRIPOS>SUBSTRUCTURE
     1 NY2         1 TEMP              0 ****  ****    0 ROOT
