@<TRIPOS>MOLECULE
NY3
   65    68     1     0     0
SMALL
No Charge or Current Charge


@<TRIPOS>ATOM
      1 O3           6.9160   -18.5990   -35.3330 o          1 NY3      -0.499000
      2 C9           5.7470   -18.3950   -35.6370 c          1 NY3       0.685300
      3 O            5.0310   -19.3870   -36.2410 os         1 NY3      -0.342200
      4 C8           3.7310   -19.2710   -36.6310 ca         1 NY3       0.223100
      5 C26          3.1270   -20.3660   -37.2570 ca         1 NY3      -0.243000
      6 C4           1.7890   -20.3050   -37.6670 ca         1 NY3       0.398000
      7 N            1.1850   -21.4190   -38.2980 nh         1 NY3      -0.816400
      8 C2          -0.2360   -21.7720   -38.0600 c3         1 NY3       0.224300
      9 C3          -0.5470   -22.0960   -36.5870 c3         1 NY3      -0.120100
     10 C1           1.9140   -22.1960   -39.3280 c3         1 NY3       0.224300
     11 C            2.3250   -23.6030   -38.8570 c3         1 NY3      -0.120100
     12 C10          5.0430   -17.0930   -35.4000 cc         1 NY3      -0.249400
     13 C24          3.7100   -16.9420   -35.7670 cd         1 NY3       0.067600
     14 C25          2.9550   -15.6370   -35.5730 c3         1 NY3      -0.066900
     15 C7           3.0240   -18.0820   -36.4020 ca         1 NY3      -0.212800
     16 C6           1.6720   -18.0190   -36.8100 ca         1 NY3      -0.007000
     17 C5           1.0670   -19.1220   -37.4350 ca         1 NY3      -0.222000
     18 C11          5.9290   -15.9860   -34.8210 c3         1 NY3      -0.023200
     19 C12          6.4630   -15.0240   -35.9090 c3         1 NY3       0.185600
     20 O1           6.9270   -15.8320   -37.0040 os         1 NY3      -0.447100
     21 C13          7.2670   -15.2210   -38.1740 c          1 NY3       0.641100
     22 O2           7.3090   -14.0160   -38.3570 o          1 NY3      -0.553000
     23 N1           7.4780   -16.1390   -39.1710 ns         1 NY3      -0.501900
     24 C14          7.3700   -17.5960   -39.0310 c3         1 NY3       0.156300
     25 C15          6.9940   -18.2610   -40.3460 ca         1 NY3      -0.104300
     26 C23          7.9920   -18.5910   -41.2830 ca         1 NY3      -0.083000
     27 C22          7.6410   -19.2110   -42.4920 ca         1 NY3      -0.109000
     28 C21          6.2940   -19.5050   -42.7710 ca         1 NY3      -0.108000
     29 C17          5.2760   -19.1820   -41.8450 ca         1 NY3      -0.004000
     30 C16          5.6430   -18.5570   -40.6310 ca         1 NY3      -0.085000
     31 C18          3.8730   -19.4950   -42.1590 cc         1 NY3      -0.158000
     32 N3           3.3560   -20.1080   -43.2800 na         1 NY3      -0.293500
     33 C20          1.9910   -20.1620   -43.1250 cc         1 NY3       0.392400
     34 N2           1.6290   -19.6130   -41.9720 nd         1 NY3      -0.672000
     35 C19          2.7970   -19.1950   -41.3560 cd         1 NY3       0.248900
     36 H1           3.7050   -21.2710   -37.4100 ha         1 NY3       0.138000
     37 H2          -0.8910   -20.9560   -38.3970 h1         1 NY3       0.051200
     38 H3          -0.5090   -22.6500   -38.6620 h1         1 NY3       0.051200
     39 H4          -1.5990   -22.3870   -36.4780 hc         1 NY3       0.044367
     40 H5           0.0790   -22.9250   -36.2360 hc         1 NY3       0.044367
     41 H6          -0.3650   -21.2250   -35.9460 hc         1 NY3       0.044367
     42 H7           2.8180   -21.6530   -39.6400 h1         1 NY3       0.051200
     43 H8           1.2890   -22.2920   -40.2280 h1         1 NY3       0.051200
     44 H9           2.8840   -24.1180   -39.6480 hc         1 NY3       0.044367
     45 H10          2.9630   -23.5460   -37.9670 hc         1 NY3       0.044367
     46 H11          1.4430   -24.2060   -38.6130 hc         1 NY3       0.044367
     47 H12          2.5530   -15.2770   -36.5280 hc         1 NY3       0.051700
     48 H13          2.1130   -15.7760   -34.8840 hc         1 NY3       0.051700
     49 H14          3.5650   -14.8250   -35.1690 hc         1 NY3       0.051700
     50 H15          1.0750   -17.1230   -36.6550 ha         1 NY3       0.113000
     51 H16          0.0320   -19.0410   -37.7500 ha         1 NY3       0.118000
     52 H17          6.7890   -16.3950   -34.2770 hc         1 NY3       0.064700
     53 H18          5.3870   -15.4080   -34.0630 hc         1 NY3       0.064700
     54 H19          7.2680   -14.3970   -35.5030 h1         1 NY3       0.047700
     55 H20          5.6460   -14.3690   -36.2390 h1         1 NY3       0.047700
     56 H21          7.7020   -15.7590   -40.0810 hn         1 NY3       0.329500
     57 H22          6.6070   -17.8480   -38.2820 h1         1 NY3       0.066700
     58 H23          8.3320   -17.9910   -38.6740 h1         1 NY3       0.066700
     59 H24          9.0380   -18.3690   -41.0730 ha         1 NY3       0.125000
     60 H25          8.4150   -19.4650   -43.2150 ha         1 NY3       0.116000
     61 H26          6.0480   -19.9840   -43.7150 ha         1 NY3       0.104000
     62 H27          4.8850   -18.2960   -39.8970 ha         1 NY3       0.119000
     63 H28          3.8670   -20.4580   -44.0820 hn         1 NY3       0.352000
     64 H29          1.3330   -20.5990   -43.8700 h5         1 NY3       0.055100
     65 H31          2.7810   -18.7080   -40.3890 h4         1 NY3       0.038100
@<TRIPOS>BOND
     1     1     2 2   
     2     2     3 1   
     3     2    12 1   
     4     3     4 1   
     5     4     5 ar  
     6     4    15 ar  
     7     5     6 ar  
     8     5    36 1   
     9     6     7 1   
    10     6    17 ar  
    11     7     8 1   
    12     7    10 1   
    13     8     9 1   
    14     8    37 1   
    15     8    38 1   
    16     9    39 1   
    17     9    40 1   
    18     9    41 1   
    19    10    11 1   
    20    10    42 1   
    21    10    43 1   
    22    11    44 1   
    23    11    45 1   
    24    11    46 1   
    25    12    13 2   
    26    12    18 1   
    27    13    14 1   
    28    13    15 1   
    29    14    47 1   
    30    14    48 1   
    31    14    49 1   
    32    15    16 ar  
    33    16    17 ar  
    34    16    50 1   
    35    17    51 1   
    36    18    19 1   
    37    18    52 1   
    38    18    53 1   
    39    19    20 1   
    40    19    54 1   
    41    19    55 1   
    42    20    21 1   
    43    21    22 2   
    44    21    23 1   
    45    23    24 1   
    46    23    56 1   
    47    24    25 1   
    48    24    57 1   
    49    24    58 1   
    50    25    26 ar  
    51    25    30 ar  
    52    26    27 ar  
    53    26    59 1   
    54    27    28 ar  
    55    27    60 1   
    56    28    29 ar  
    57    28    61 1   
    58    29    30 ar  
    59    29    31 1   
    60    30    62 1   
    61    31    32 1   
    62    31    35 2   
    63    32    33 1   
    64    32    63 1   
    65    33    34 2   
    66    33    64 1   
    67    34    35 1   
    68    35    65 1   
@<TRIPOS>SUBSTRUCTURE
     1 NY3         1 TEMP              0 ****  ****    0 ROOT
