@<TRIPOS>MOLECULE
NY3
   65    68     1     0     0
SMALL
bcc


@<TRIPOS>ATOM
      1 O3           6.2060   -19.3920   -37.0200 o          1 NY3      -0.574500
      2 C9           5.1530   -19.0470   -36.5350 c          1 NY3       0.760800
      3 O            4.1000   -19.8810   -36.7350 os         1 NY3      -0.342200
      4 C8           2.8730   -19.6740   -36.2100 ca         1 NY3       0.223100
      5 C26          1.9250   -20.6410   -36.4790 ca         1 NY3      -0.261000
      6 C4           0.6220   -20.5210   -35.9680 ca         1 NY3       0.259600
      7 N           -0.3410   -21.4410   -36.2390 nh         1 NY3      -0.678000
      8 C2          -1.6420   -21.3760   -35.5930 c3         1 NY3       0.224300
      9 C3          -1.6530   -21.8470   -34.1440 c3         1 NY3      -0.120100
     10 C1          -0.0420   -22.6220   -37.0290 c3         1 NY3       0.224300
     11 C            0.6420   -23.7450   -36.2580 c3         1 NY3      -0.120100
     12 C10          4.9200   -17.8460   -35.7610 cc         1 NY3      -0.249400
     13 C24          3.6920   -17.6040   -35.2180 cd         1 NY3       0.067600
     14 C25          3.4660   -16.3750   -34.3890 c3         1 NY3      -0.066900
     15 C7           2.6210   -18.5400   -35.4340 ca         1 NY3      -0.212800
     16 C6           1.3170   -18.4340   -34.9250 ca         1 NY3      -0.025000
     17 C5           0.3530   -19.3780   -35.1700 ca         1 NY3      -0.240000
     18 C11          6.0890   -16.9170   -35.5950 c3         1 NY3      -0.023200
     19 C12          6.1110   -15.7710   -36.5910 c3         1 NY3       0.162400
     20 O1           6.1520   -16.3180   -37.9070 os         1 NY3      -0.423900
     21 C13          6.1420   -15.4530   -38.9220 c          1 NY3       0.757100
     22 O2           6.0770   -14.2470   -38.7810 o          1 NY3      -0.602000
     23 N1           6.2270   -16.0660   -40.1200 ns         1 NY3      -0.568900
     24 C14          6.2030   -17.4910   -40.3810 c3         1 NY3       0.156300
     25 C15          7.0460   -17.8050   -41.5890 ca         1 NY3      -0.104300
     26 C23          8.4350   -17.7020   -41.5210 ca         1 NY3      -0.101000
     27 C22          9.2020   -17.9640   -42.6440 ca         1 NY3      -0.127000
     28 C21          8.6010   -18.3260   -43.8420 ca         1 NY3      -0.126000
     29 C17          7.2120   -18.4240   -43.9310 ca         1 NY3      -0.004000
     30 C16          6.4500   -18.1570   -42.7890 ca         1 NY3      -0.103000
     31 C18          6.5420   -18.8000   -45.1680 cc         1 NY3      -0.172600
     32 N3           7.1100   -18.7190   -46.4110 na         1 NY3      -0.293900
     33 C20          6.2070   -19.1550   -47.3100 cc         1 NY3       0.392400
     34 N2           5.0900   -19.5210   -46.7320 nd         1 NY3      -0.672000
     35 C19          5.2850   -19.3050   -45.4020 cd         1 NY3       0.314200
     36 H1           2.2280   -21.4860   -37.0810 ha         1 NY3       0.156000
     37 H2          -2.0340   -20.3600   -35.6620 h1         1 NY3       0.051200
     38 H3          -2.3230   -21.9910   -36.1800 h1         1 NY3       0.051200
     39 H4          -2.6570   -21.7440   -33.7300 hc         1 NY3       0.044367
     40 H5          -1.3660   -22.8950   -34.0640 hc         1 NY3       0.044367
     41 H6          -0.9760   -21.2640   -33.5210 hc         1 NY3       0.044367
     42 H7           0.5610   -22.3350   -37.8940 h1         1 NY3       0.051200
     43 H8          -0.9840   -22.9860   -37.4400 h1         1 NY3       0.051200
     44 H9           0.8670   -24.5730   -36.9310 hc         1 NY3       0.044367
     45 H10          1.5780   -23.4180   -35.8060 hc         1 NY3       0.044367
     46 H11          0.0000   -24.1270   -35.4650 hc         1 NY3       0.044367
     47 H12          2.4510   -16.2900   -34.0130 hc         1 NY3       0.051700
     48 H13          4.1330   -16.3690   -33.5250 hc         1 NY3       0.051700
     49 H14          3.6750   -15.4710   -34.9600 hc         1 NY3       0.051700
     50 H15          1.0400   -17.5880   -34.3110 ha         1 NY3       0.131000
     51 H16         -0.6230   -19.2240   -34.7360 ha         1 NY3       0.136000
     52 H17          7.0230   -17.4740   -35.6630 hc         1 NY3       0.064700
     53 H18          6.0790   -16.4660   -34.6000 hc         1 NY3       0.064700
     54 H19          6.9890   -15.1440   -36.4130 h1         1 NY3       0.047700
     55 H20          5.2260   -15.1410   -36.4790 h1         1 NY3       0.047700
     56 H21          6.1320   -15.4550   -40.9160 hn         1 NY3       0.329500
     57 H22          5.1790   -17.8420   -40.5430 h1         1 NY3       0.066700
     58 H23          6.5900   -18.0230   -39.5140 h1         1 NY3       0.066700
     59 H24          8.9120   -17.4200   -40.5900 ha         1 NY3       0.143000
     60 H25         10.2810   -17.8940   -42.5890 ha         1 NY3       0.134000
     61 H26          9.2280   -18.5460   -44.6960 ha         1 NY3       0.122000
     62 H27          5.3690   -18.2090   -42.8430 ha         1 NY3       0.137000
     63 H28          8.0240   -18.3560   -46.6350 hn         1 NY3       0.301700
     64 H29          6.4150   -19.1810   -48.3680 h5         1 NY3       0.055100
     65 H31          4.5240   -19.5360   -44.6710 h4         1 NY3       0.038100
@<TRIPOS>BOND
     1     1     2 2   
     2     2     3 1   
     3     2    12 1   
     4     3     4 1   
     5     4     5 ar  
     6     4    15 ar  
     7     5     6 ar  
     8     5    36 1   
     9     6     7 1   
    10     6    17 ar  
    11     7     8 1   
    12     7    10 1   
    13     8     9 1   
    14     8    37 1   
    15     8    38 1   
    16     9    39 1   
    17     9    40 1   
    18     9    41 1   
    19    10    11 1   
    20    10    42 1   
    21    10    43 1   
    22    11    44 1   
    23    11    45 1   
    24    11    46 1   
    25    12    13 2   
    26    12    18 1   
    27    13    14 1   
    28    13    15 1   
    29    14    47 1   
    30    14    48 1   
    31    14    49 1   
    32    15    16 ar  
    33    16    17 ar  
    34    16    50 1   
    35    17    51 1   
    36    18    19 1   
    37    18    52 1   
    38    18    53 1   
    39    19    20 1   
    40    19    54 1   
    41    19    55 1   
    42    20    21 1   
    43    21    22 2   
    44    21    23 1   
    45    23    24 1   
    46    23    56 1   
    47    24    25 1   
    48    24    57 1   
    49    24    58 1   
    50    25    26 ar  
    51    25    30 ar  
    52    26    27 ar  
    53    26    59 1   
    54    27    28 ar  
    55    27    60 1   
    56    28    29 ar  
    57    28    61 1   
    58    29    30 ar  
    59    29    31 1   
    60    30    62 1   
    61    31    32 1   
    62    31    35 2   
    63    32    33 1   
    64    32    63 1   
    65    33    34 2   
    66    33    64 1   
    67    34    35 1   
    68    35    65 1   
@<TRIPOS>SUBSTRUCTURE
     1 NY3         1 TEMP              0 ****  ****    0 ROOT
