@<TRIPOS>MOLECULE
NY4
   31    32     1     0     0
SMALL
abcg2


@<TRIPOS>ATOM
      1 N1           4.5500    -0.6570     1.1870 n8         1 NY4      -0.982200
      2 C4           1.9730     1.4990     0.2350 ca         1 NY4      -0.074000
      3 C5           0.5930     1.6130     0.2390 ca         1 NY4      -0.150000
      4 C6          -0.2170     0.4890     0.0750 ca         1 NY4      -0.018000
      5 C7          -2.6120    -0.1990    -0.0090 c          1 NY4       0.640100
      6 C8          -3.9650     0.4160     0.0100 cx         1 NY4      -0.251700
      7 C10         -5.0430    -0.2440    -0.8100 cx         1 NY4      -0.095400
      8 C1           4.6090    -0.3460    -1.3040 c3         1 NY4      -0.127100
      9 C11          0.3950    -0.7550    -0.0930 ca         1 NY4      -0.150000
     10 C12          1.7800    -0.8460    -0.0990 ca         1 NY4      -0.074000
     11 C2           4.1040     0.1500     0.0520 c3         1 NY4       0.206800
     12 C3           2.5970     0.2680     0.0640 ca         1 NY4      -0.094300
     13 C9          -5.0800    -0.3540     0.6680 cx         1 NY4      -0.095400
     14 O1          -2.4450    -1.4050    -0.1010 o          1 NY4      -0.589100
     15 H1           4.2550    -1.6190     1.0590 hn         1 NY4       0.390000
     16 H2           5.5630    -0.6880     1.1840 hn         1 NY4       0.390000
     17 H4           2.5730     2.3910     0.3680 ha         1 NY4       0.109500
     18 H5           0.1400     2.5890     0.3740 ha         1 NY4       0.127000
     19 H6          -4.0110     1.4960     0.0900 hc         1 NY4       0.084700
     20 H7          -5.7500     0.4110    -1.3020 hc         1 NY4       0.082700
     21 H8          -4.7620    -1.1210    -1.3800 hc         1 NY4       0.082700
     22 H9           4.2440    -1.3530    -1.5200 hc         1 NY4       0.038700
     23 H10          4.2820     0.3080    -2.1150 hc         1 NY4       0.038700
     24 H11          5.7000    -0.3760    -1.3190 hc         1 NY4       0.038700
     25 H12         -0.1930    -1.6490    -0.2240 ha         1 NY4       0.127000
     26 H13          2.2200    -1.8260    -0.2440 ha         1 NY4       0.109500
     27 H14          4.5070     1.1550     0.2100 h1         1 NY4       0.059700
     28 H15         -4.8260    -1.3060     1.1170 hc         1 NY4       0.082700
     29 H16         -5.8120     0.2250     1.2150 hc         1 NY4       0.082700
     30 H17         -1.8750     1.6670     0.1740 hn         1 NY4       0.149000
     31 N2          -1.6000     0.7010     0.0820 ns         1 NY4      -0.142000
@<TRIPOS>BOND
     1     1    11 1   
     2     1    15 1   
     3     1    16 1   
     4     2     3 ar  
     5     2    12 ar  
     6     2    17 1   
     7     3     4 ar  
     8     3    18 1   
     9     4     9 ar  
    10     4    31 1   
    11     5     6 1   
    12     5    14 2   
    13     5    31 1   
    14     6     7 1   
    15     6    13 1   
    16     6    19 1   
    17     7    13 1   
    18     7    20 1   
    19     7    21 1   
    20     8    11 1   
    21     8    22 1   
    22     8    23 1   
    23     8    24 1   
    24     9    10 ar  
    25     9    25 1   
    26    10    12 ar  
    27    10    26 1   
    28    11    12 1   
    29    11    27 1   
    30    13    28 1   
    31    13    29 1   
    32    30    31 1   
@<TRIPOS>SUBSTRUCTURE
     1 NY4         1 TEMP              0 ****  ****    0 ROOT
