@<TRIPOS>MOLECULE
NY4
   31    32     1     0     0
SMALL
No Charge or Current Charge


@<TRIPOS>ATOM
      1 N1           4.4600    -0.9210     1.2050 n8         1 NY4      -0.982200
      2 C4           1.8540     1.3090     0.6150 ca         1 NY4      -0.074000
      3 C5           0.4560     1.3950     0.5020 ca         1 NY4      -0.150000
      4 C6          -0.2820     0.3680    -0.1140 ca         1 NY4      -0.018000
      5 C7          -2.6950    -0.2550    -0.7500 c          1 NY4       0.640100
      6 C8          -4.0790     0.3270    -0.5710 cx         1 NY4      -0.251700
      7 C10         -5.1990    -0.5720    -0.0810 cx         1 NY4      -0.095400
      8 C1           4.7720    -0.1330    -1.1110 c3         1 NY4      -0.127100
      9 C11          0.4080    -0.7570    -0.6140 ca         1 NY4      -0.150000
     10 C12          1.8070    -0.8440    -0.5020 ca         1 NY4      -0.074000
     11 C2           4.0670     0.1140     0.2370 c3         1 NY4       0.206800
     12 C3           2.5440     0.1900     0.1120 ca         1 NY4      -0.094300
     13 C9          -4.6310     0.4870     0.8340 cx         1 NY4      -0.095400
     14 O1          -2.5160    -1.3100    -1.3480 o          1 NY4      -0.589100
     15 H1           4.1260    -1.8280     0.8630 hn         1 NY4       0.390000
     16 H2           5.4810    -1.0150     1.1890 hn         1 NY4       0.390000
     17 H4           2.4010     2.1170     1.0960 ha         1 NY4       0.109500
     18 H5          -0.0560     2.2700     0.8980 ha         1 NY4       0.127000
     19 H6          -4.3480     1.0920    -1.2940 hc         1 NY4       0.084700
     20 H7          -6.1950    -0.4090    -0.4870 hc         1 NY4       0.082700
     21 H8          -4.9660    -1.6110     0.1430 hc         1 NY4       0.082700
     22 H9           4.5170    -1.1150    -1.5270 hc         1 NY4       0.038700
     23 H10          4.4770     0.6330    -1.8370 hc         1 NY4       0.038700
     24 H11          5.8610    -0.0830    -0.9930 hc         1 NY4       0.038700
     25 H12         -0.1190    -1.5780    -1.0910 ha         1 NY4       0.127000
     26 H13          2.3150    -1.7230    -0.8910 ha         1 NY4       0.109500
     27 H14          4.4310     1.0790     0.6220 h1         1 NY4       0.059700
     28 H15         -4.0230     0.1530     1.6720 hc         1 NY4       0.082700
     29 H16         -5.2470     1.3590     1.0430 hc         1 NY4       0.082700
     30 H17         -2.0350     1.3680     0.2530 hn         1 NY4       0.149000
     31 N2          -1.6940     0.5250    -0.1900 ns         1 NY4      -0.142000
@<TRIPOS>BOND
     1     1    11 1   
     2     1    15 1   
     3     1    16 1   
     4     2     3 ar  
     5     2    12 ar  
     6     2    17 1   
     7     3     4 ar  
     8     3    18 1   
     9     4     9 ar  
    10     4    31 1   
    11     5     6 1   
    12     5    14 2   
    13     5    31 1   
    14     6     7 1   
    15     6    13 1   
    16     6    19 1   
    17     7    13 1   
    18     7    20 1   
    19     7    21 1   
    20     8    11 1   
    21     8    22 1   
    22     8    23 1   
    23     8    24 1   
    24     9    10 ar  
    25     9    25 1   
    26    10    12 ar  
    27    10    26 1   
    28    11    12 1   
    29    11    27 1   
    30    13    28 1   
    31    13    29 1   
    32    30    31 1   
@<TRIPOS>SUBSTRUCTURE
     1 NY4         1 TEMP              0 ****  ****    0 ROOT
