@<TRIPOS>MOLECULE
NY5
   24    25     1     0     0
SMALL
No Charge or Current Charge


@<TRIPOS>ATOM
      1 C1         -13.0650    24.7530    -0.6480 ca         1 NY5      -0.144000
      2 C2         -11.6710    24.6120    -0.7530 ca         1 NY5      -0.106300
      3 C3         -10.9740    25.3340    -1.7510 ca         1 NY5      -0.107300
      4 C4         -11.6870    26.1710    -2.6320 ca         1 NY5      -0.088000
      5 C5         -13.0910    26.3140    -2.5340 ca         1 NY5      -0.131600
      6 C6         -13.8520    27.2210    -3.4900 c          1 NY5       0.713600
      7 C10        -10.9370    23.6970     0.2360 c6         1 NY5      -0.018100
      8 O1         -13.2250    27.8290    -4.3470 o          1 NY5      -0.722500
      9 O          -15.0660    27.3140    -3.3700 o          1 NY5      -0.722500
     10 C          -13.7700    25.5920    -1.5260 ca         1 NY5      -0.086000
     11 C7          -9.4530    25.2070    -1.9150 c6         1 NY5      -0.021100
     12 C8          -8.7480    24.5860    -0.6880 c6         1 NY5      -0.070400
     13 C9          -9.5030    23.3310    -0.2080 c6         1 NY5      -0.069400
     14 H1         -13.6090    24.2090     0.1210 ha         1 NY5       0.081000
     15 H2         -11.1400    26.7130    -3.4010 ha         1 NY5       0.124000
     16 H9         -10.8930    24.1990     1.2120 hc         1 NY5       0.029700
     17 H10        -11.5130    22.7750     0.3940 hc         1 NY5       0.029700
     18 H          -14.8490    25.6790    -1.4200 ha         1 NY5       0.125000
     19 H4          -9.2460    24.5880    -2.7990 hc         1 NY5       0.036700
     20 H3          -9.0140    26.1920    -2.1240 hc         1 NY5       0.036700
     21 H5          -7.7100    24.3310    -0.9420 hc         1 NY5       0.027700
     22 H6          -8.7010    25.3230     0.1260 hc         1 NY5       0.027700
     23 H8          -9.5430    22.5910    -1.0190 hc         1 NY5       0.027700
     24 H7          -8.9630    22.8580     0.6240 hc         1 NY5       0.027700
@<TRIPOS>BOND
     1     1     2 ar  
     2     1    10 ar  
     3     1    14 1   
     4     2     3 ar  
     5     2     7 1   
     6     3     4 ar  
     7     3    11 1   
     8     4     5 ar  
     9     4    15 1   
    10     5     6 1   
    11     5    10 ar  
    12     6     8 1   
    13     6     9 1   
    14     7    13 1   
    15     7    16 1   
    16     7    17 1   
    17    10    18 1   
    18    11    12 1   
    19    11    19 1   
    20    11    20 1   
    21    12    13 1   
    22    12    21 1   
    23    12    22 1   
    24    13    23 1   
    25    13    24 1   
@<TRIPOS>SUBSTRUCTURE
     1 NY5         1 TEMP              0 ****  ****    0 ROOT
