@<TRIPOS>MOLECULE
NY5
   24    25     1     0     0
SMALL
abcg2


@<TRIPOS>ATOM
      1 C1         -13.0420    24.7420    -0.6730 ca         1 NY5      -0.144000
      2 C2         -11.6550    24.6070    -0.7550 ca         1 NY5      -0.106300
      3 C3         -10.9710    25.3200    -1.7420 ca         1 NY5      -0.107300
      4 C4         -11.6890    26.1530    -2.5990 ca         1 NY5      -0.088000
      5 C5         -13.0690    26.2950    -2.5180 ca         1 NY5      -0.131600
      6 C6         -13.8210    27.2230    -3.4670 c          1 NY5       0.713600
      7 C10        -10.9300    23.7260     0.2310 c6         1 NY5      -0.018100
      8 O1         -13.1310    27.8650    -4.2830 o          1 NY5      -0.722500
      9 O          -15.0610    27.2610    -3.3430 o          1 NY5      -0.722500
     10 C          -13.7410    25.5670    -1.5370 ca         1 NY5      -0.086000
     11 C7          -9.4780    25.1880    -1.9160 c6         1 NY5      -0.021100
     12 C8          -8.7830    24.5950    -0.6990 c6         1 NY5      -0.070400
     13 C9          -9.5250    23.3550    -0.2220 c6         1 NY5      -0.069400
     14 H1         -13.5800    24.1850     0.0860 ha         1 NY5       0.081000
     15 H2         -11.1510    26.7110    -3.3570 ha         1 NY5       0.124000
     16 H9         -10.8680    24.2520     1.1900 hc         1 NY5       0.029700
     17 H10        -11.5210    22.8270     0.4250 hc         1 NY5       0.029700
     18 H          -14.8160    25.6480    -1.4500 ha         1 NY5       0.125000
     19 H4          -9.2800    24.5470    -2.7830 hc         1 NY5       0.036700
     20 H3          -9.0500    26.1620    -2.1640 hc         1 NY5       0.036700
     21 H5          -7.7460    24.3570    -0.9460 hc         1 NY5       0.027700
     22 H6          -8.7490    25.3320     0.1110 hc         1 NY5       0.027700
     23 H8          -9.5780    22.6280    -1.0380 hc         1 NY5       0.027700
     24 H7          -8.9890    22.8700     0.5960 hc         1 NY5       0.027700
@<TRIPOS>BOND
     1     1     2 ar  
     2     1    10 ar  
     3     1    14 1   
     4     2     3 ar  
     5     2     7 1   
     6     3     4 ar  
     7     3    11 1   
     8     4     5 ar  
     9     4    15 1   
    10     5     6 1   
    11     5    10 ar  
    12     6     8 1   
    13     6     9 1   
    14     7    13 1   
    15     7    16 1   
    16     7    17 1   
    17    10    18 1   
    18    11    12 1   
    19    11    19 1   
    20    11    20 1   
    21    12    13 1   
    22    12    21 1   
    23    12    22 1   
    24    13    23 1   
    25    13    24 1   
@<TRIPOS>SUBSTRUCTURE
     1 NY5         1 TEMP              0 ****  ****    0 ROOT
