@<TRIPOS>MOLECULE
NY7
   28    28     1     0     0
SMALL
bcc


@<TRIPOS>ATOM
      1 N1           1.0140     0.5030     0.3620 ns         1 NY7      -0.479100
      2 C4          -2.7660    -1.2190    -0.0960 ca         1 NY7      -0.113000
      3 C5          -1.6830    -2.0580     0.1090 ca         1 NY7      -0.086300
      4 C6          -1.8450    -3.5510     0.1650 c3         1 NY7      -0.041800
      5 C7          -0.4200    -1.4840     0.2620 ca         1 NY7      -0.109000
      6 C8          -0.2350    -0.1110     0.1960 ca         1 NY7       0.043600
      7 C10          3.3520     1.0180     0.1990 c3         1 NY7       0.068800
      8 C1          -2.1730     2.9470    -0.1660 c3         1 NY7       0.129700
      9 C2          -1.3470     0.7250    -0.0140 ca         1 NY7       0.091100
     10 C3          -2.6060     0.1630    -0.1520 ca         1 NY7      -0.190000
     11 C9           2.2210     0.0350    -0.0520 c          1 NY7       0.669100
     12 N2           4.6260     0.4720    -0.2040 n8         1 NY7      -0.862800
     13 O1          -1.0880     2.0490    -0.0510 os         1 NY7      -0.337900
     14 O2           2.3860    -1.0440    -0.5870 o          1 NY7      -0.563100
     15 H1           0.9960     1.4490     0.7130 hn         1 NY7       0.325500
     16 H2          -3.7600    -1.6340    -0.2110 ha         1 NY7       0.130000
     17 H3          -1.5400    -4.0200    -0.7730 hc         1 NY7       0.042700
     18 H4          -1.2360    -3.9890     0.9560 hc         1 NY7       0.042700
     19 H5          -2.8820    -3.8310     0.3480 hc         1 NY7       0.042700
     20 H6           0.4280    -2.1260     0.4500 ha         1 NY7       0.159000
     21 H7           3.0800     1.9660    -0.2890 h1         1 NY7       0.044200
     22 H8           3.3800     1.2340     1.2700 h1         1 NY7       0.044200
     23 H9          -2.7010     2.8300    -1.1150 h1         1 NY7       0.040367
     24 H10         -2.8870     2.8280     0.6530 h1         1 NY7       0.040367
     25 H11         -1.7510     3.9480    -0.1230 h1         1 NY7       0.040367
     26 H12         -3.4770     0.7840    -0.3090 ha         1 NY7       0.134000
     27 H13          4.6570     0.3760    -1.2110 hn         1 NY7       0.347300
     28 H14          5.3520     1.1360     0.0330 hn         1 NY7       0.347300
@<TRIPOS>BOND
     1     1     6 1   
     2     1    11 1   
     3     1    15 1   
     4     2     3 ar  
     5     2    10 ar  
     6     2    16 1   
     7     3     4 1   
     8     3     5 ar  
     9     4    17 1   
    10     4    18 1   
    11     4    19 1   
    12     5     6 ar  
    13     5    20 1   
    14     6     9 ar  
    15     7    11 1   
    16     7    12 1   
    17     7    21 1   
    18     7    22 1   
    19     8    13 1   
    20     8    23 1   
    21     8    24 1   
    22     8    25 1   
    23     9    10 ar  
    24     9    13 1   
    25    10    26 1   
    26    11    14 2   
    27    12    27 1   
    28    12    28 1   
@<TRIPOS>SUBSTRUCTURE
     1 NY7         1 TEMP              0 ****  ****    0 ROOT
