@<TRIPOS>MOLECULE
NY7
   28    28     1     0     0
SMALL
No Charge or Current Charge


@<TRIPOS>ATOM
      1 N1           1.0320     0.4780     0.0010 ns         1 NY7      -0.153000
      2 C4          -2.8560    -1.2370     0.0400 ca         1 NY7      -0.095000
      3 C5          -1.7390    -2.0890     0.0390 ca         1 NY7      -0.086300
      4 C6          -1.9270    -3.5990     0.0450 c3         1 NY7      -0.041800
      5 C7          -0.4430    -1.5390     0.0240 ca         1 NY7      -0.091000
      6 C8          -0.2550    -0.1380     0.0150 ca         1 NY7      -0.049000
      7 C10          3.4320     1.0770    -0.0290 c3         1 NY7       0.068800
      8 C1          -2.2590     3.0270     0.0150 c3         1 NY7       0.152900
      9 C2          -1.3850     0.7110     0.0200 ca         1 NY7       0.091100
     10 C3          -2.6840     0.1560     0.0320 ca         1 NY7      -0.172000
     11 C9           2.3240    -0.0320    -0.0170 c          1 NY7       0.602100
     12 N2           4.8310     0.6790     0.3700 n8         1 NY7      -0.973200
     13 O1          -1.1760     2.0790     0.0110 os         1 NY7      -0.361100
     14 O2           2.5940    -1.2310    -0.0290 o          1 NY7      -0.563100
     15 H1           0.9880     1.4890     0.0050 hn         1 NY7       0.159000
     16 H2          -3.8610    -1.6540     0.0480 ha         1 NY7       0.112000
     17 H3          -1.8770    -4.0030    -0.9730 hc         1 NY7       0.042700
     18 H4          -1.1500    -4.0950     0.6410 hc         1 NY7       0.042700
     19 H5          -2.8970    -3.8830     0.4710 hc         1 NY7       0.042700
     20 H6           0.4020    -2.2200     0.0200 ha         1 NY7       0.141000
     21 H7           3.4610     1.4900    -1.0460 h1         1 NY7       0.044200
     22 H8           3.1020     1.8820     0.6420 h1         1 NY7       0.044200
     23 H9          -2.8930     2.8980    -0.8720 h1         1 NY7       0.040367
     24 H10         -2.8790     2.9070     0.9120 h1         1 NY7       0.040367
     25 H11         -1.8680     4.0510     0.0070 h1         1 NY7       0.040367
     26 H12         -3.5680     0.7850     0.0340 ha         1 NY7       0.116000
     27 H13          5.1710    -0.0560    -0.2650 hn         1 NY7       0.402500
     28 H14          5.4750     1.4640     0.2030 hn         1 NY7       0.402500
@<TRIPOS>BOND
     1     1     6 1   
     2     1    11 1   
     3     1    15 1   
     4     2     3 ar  
     5     2    10 ar  
     6     2    16 1   
     7     3     4 1   
     8     3     5 ar  
     9     4    17 1   
    10     4    18 1   
    11     4    19 1   
    12     5     6 ar  
    13     5    20 1   
    14     6     9 ar  
    15     7    11 1   
    16     7    12 1   
    17     7    21 1   
    18     7    22 1   
    19     8    13 1   
    20     8    23 1   
    21     8    24 1   
    22     8    25 1   
    23     9    10 ar  
    24     9    13 1   
    25    10    26 1   
    26    11    14 2   
    27    12    27 1   
    28    12    28 1   
@<TRIPOS>SUBSTRUCTURE
     1 NY7         1 TEMP              0 ****  ****    0 ROOT
