@<TRIPOS>MOLECULE
NY8
   79    83     1     0     0
SMALL
No Charge or Current Charge


@<TRIPOS>ATOM
      1 C4           0.5590    43.9190    83.5220 ca         1 NY8       0.122000
      2 C5          -0.2350    43.8140    82.3570 ca         1 NY8      -0.228000
      3 C6          -1.3450    44.6870    82.2510 ca         1 NY8       0.440900
      4 N1          -1.6320    45.5750    83.2130 nb         1 NY8      -0.335000
      5 N3           0.2540    44.8160    84.4790 nb         1 NY8      -0.302000
      6 CAC          0.1260    50.1300    81.4940 c3         1 NY8       0.149100
      7 NBL         -0.2740    50.2100    82.9150 n3         1 NY8      -0.711600
      8 CAD         -0.9270    51.5040    83.2260 c3         1 NY8       0.149100
      9 CAR         -1.0520    49.0130    83.3360 c3         1 NY8       0.155800
     10 CAN         -1.3590    48.9300    84.8490 c3         1 NY8      -0.090400
     11 CAO         -2.0440    47.6160    85.2840 c3         1 NY8       0.236800
     12 C2          -0.8150    45.5960    84.2710 ca         1 NY8       0.432900
     13 CAL          1.6710    43.0790    83.6800 ca         1 NY8      -0.206000
     14 CBD          2.0110    42.1320    82.6900 ca         1 NY8       0.166100
     15 OAZ          3.1070    41.2940    82.8280 os         1 NY8      -0.319100
     16 CAA          3.9670    41.3270    83.9800 c3         1 NY8       0.143900
     17 CBE          1.2240    42.0270    81.5210 ca         1 NY8       0.083100
     18 OBA          1.5830    41.0910    80.5620 os         1 NY8      -0.319100
     19 CAB          0.8490    40.9100    79.3390 c3         1 NY8       0.145900
     20 CAM          0.1010    42.8700    81.3570 ca         1 NY8      -0.131000
     21 NAY         -2.2100    44.6380    81.1540 nu         1 NY8      -0.929100
     22 CBK         -2.8060    45.7960    80.4500 c6         1 NY8       0.259500
     23 CAQ         -3.9920    46.4190    81.2220 c6         1 NY8      -0.091900
     24 CAT         -4.5760    47.6100    80.4340 c6         1 NY8       0.172300
     25 CAP         -1.7480    46.8670    80.1030 c6         1 NY8      -0.091900
     26 CAS         -2.4050    48.0490    79.3600 c6         1 NY8       0.172300
     27 NBM         -3.5260    48.6280    80.1470 n3         1 NY8      -0.725600
     28 CAU         -4.0670    49.8640    79.5320 c3         1 NY8       0.218100
     29 CBB         -5.0790    50.5980    80.4110 ca         1 NY8      -0.081300
     30 CAK         -6.3010    51.0430    79.8690 ca         1 NY8      -0.099000
     31 CBH         -7.2340    51.7220    80.6760 ca         1 NY8      -0.037000
     32 CAI         -8.4540    52.1650    80.1310 ca         1 NY8      -0.098000
     33 CAF         -9.3830    52.8420    80.9410 ca         1 NY8      -0.109000
     34 CAE         -9.0960    53.0780    82.2960 ca         1 NY8      -0.107000
     35 CAH         -7.8790    52.6380    82.8450 ca         1 NY8      -0.099000
     36 CBG         -6.9450    51.9600    82.0380 ca         1 NY8      -0.034000
     37 CAJ         -5.7260    51.5160    82.5810 ca         1 NY8      -0.107000
     38 CAG         -4.7990    50.8400    81.7710 ca         1 NY8      -0.089000
     39 H1           0.7900    50.9640    81.2290 h1         1 NY8       0.028033
     40 H2           0.6640    49.1930    81.2920 h1         1 NY8       0.028033
     41 H3          -0.7550    50.1700    80.8400 h1         1 NY8       0.028033
     42 H5          -0.2990    52.3410    82.8950 h1         1 NY8       0.028033
     43 H6          -1.8970    51.5860    82.7180 h1         1 NY8       0.028033
     44 H7          -1.0870    51.6220    84.3050 h1         1 NY8       0.028033
     45 H8          -0.4800    48.1150    83.0670 h1         1 NY8       0.045200
     46 H9          -2.0000    48.9630    82.7820 h1         1 NY8       0.045200
     47 H10         -2.0290    49.7530    85.1200 hc         1 NY8       0.047200
     48 H11         -0.4350    49.0700    85.4230 hc         1 NY8       0.047200
     49 H12         -2.9170    47.4100    84.6490 h1         1 NY8       0.053700
     50 H13         -2.4210    47.7680    86.3050 h1         1 NY8       0.053700
     51 H14         -0.4540    46.4250    86.0850 hn         1 NY8       0.498000
     52 H15          2.2640    43.1780    84.5850 ha         1 NY8       0.138000
     53 H16          4.7660    40.5820    83.8790 h1         1 NY8       0.043700
     54 H17          4.4350    42.3130    84.0890 h1         1 NY8       0.043700
     55 H18          3.4040    41.0990    84.8940 h1         1 NY8       0.043700
     56 H19          1.3100    40.1200    78.7330 h1         1 NY8       0.037367
     57 H20         -0.1890    40.6170    79.5460 h1         1 NY8       0.037367
     58 H21          0.8440    41.8340    78.7460 h1         1 NY8       0.037367
     59 H22         -0.5020    42.7970    80.4580 ha         1 NY8       0.105000
     60 H23         -2.0970    43.7930    80.6000 hn         1 NY8       0.489000
     61 H24         -3.2170    45.4280    79.4970 h1         1 NY8       0.035700
     62 H25         -4.7730    45.6650    81.3890 hc         1 NY8       0.063700
     63 H26         -3.6810    46.7780    82.2090 hc         1 NY8       0.063700
     64 H27         -5.3920    48.0480    81.0270 h1         1 NY8       0.032200
     65 H28         -5.0190    47.2440    79.4960 h1         1 NY8       0.032200
     66 H29         -0.9580    46.4300    79.4780 hc         1 NY8       0.063700
     67 H30         -1.2630    47.2400    81.0120 hc         1 NY8       0.063700
     68 H31         -1.6380    48.8130    79.1660 h1         1 NY8       0.032200
     69 H32         -2.7690    47.7030    78.3800 h1         1 NY8       0.032200
     70 H34         -3.2440    50.5610    79.3240 h1         1 NY8       0.037700
     71 H35         -4.5330    49.6240    78.5670 h1         1 NY8       0.037700
     72 H36         -6.5250    50.8610    78.8200 ha         1 NY8       0.110000
     73 H37         -8.6850    51.9860    79.0830 ha         1 NY8       0.111000
     74 H38        -10.3260    53.1830    80.5170 ha         1 NY8       0.112000
     75 H39         -9.8160    53.6020    82.9210 ha         1 NY8       0.113000
     76 H40         -7.6630    52.8240    83.8950 ha         1 NY8       0.113000
     77 H41         -5.4950    51.6920    83.6290 ha         1 NY8       0.112000
     78 H42         -3.8620    50.4920    82.1990 ha         1 NY8       0.129000
     79 NAX         -1.1020    46.4790    85.2990 nu         1 NY8      -0.932100
@<TRIPOS>BOND
     1     1     2 ar  
     2     1     5 ar  
     3     1    13 ar  
     4     2     3 ar  
     5     2    20 ar  
     6     3     4 ar  
     7     3    21 1   
     8     4    12 ar  
     9     5    12 ar  
    10     6     7 1   
    11     6    39 1   
    12     6    40 1   
    13     6    41 1   
    14     7     8 1   
    15     7     9 1   
    16     8    42 1   
    17     8    43 1   
    18     8    44 1   
    19     9    10 1   
    20     9    45 1   
    21     9    46 1   
    22    10    11 1   
    23    10    47 1   
    24    10    48 1   
    25    11    49 1   
    26    11    50 1   
    27    11    79 1   
    28    12    79 1   
    29    13    14 ar  
    30    13    52 1   
    31    14    15 1   
    32    14    17 ar  
    33    15    16 1   
    34    16    53 1   
    35    16    54 1   
    36    16    55 1   
    37    17    18 1   
    38    17    20 ar  
    39    18    19 1   
    40    19    56 1   
    41    19    57 1   
    42    19    58 1   
    43    20    59 1   
    44    21    22 1   
    45    21    60 1   
    46    22    23 1   
    47    22    25 1   
    48    22    61 1   
    49    23    24 1   
    50    23    62 1   
    51    23    63 1   
    52    24    27 1   
    53    24    64 1   
    54    24    65 1   
    55    25    26 1   
    56    25    66 1   
    57    25    67 1   
    58    26    27 1   
    59    26    68 1   
    60    26    69 1   
    61    27    28 1   
    62    28    29 1   
    63    28    70 1   
    64    28    71 1   
    65    29    30 ar  
    66    29    38 ar  
    67    30    31 ar  
    68    30    72 1   
    69    31    32 ar  
    70    31    36 ar  
    71    32    33 ar  
    72    32    73 1   
    73    33    34 ar  
    74    33    74 1   
    75    34    35 ar  
    76    34    75 1   
    77    35    36 ar  
    78    35    76 1   
    79    36    37 ar  
    80    37    38 ar  
    81    37    77 1   
    82    38    78 1   
    83    51    79 1   
@<TRIPOS>SUBSTRUCTURE
     1 NY8         1 TEMP              0 ****  ****    0 ROOT
