@<TRIPOS>MOLECULE
NY8
   79    83     1     0     0
SMALL
bcc


@<TRIPOS>ATOM
      1 C4           0.3660    43.9540    83.4550 ca         1 NY8       0.515600
      2 C5          -0.2250    43.8270    82.1860 ca         1 NY8      -0.358600
      3 C6          -1.1010    44.9040    81.8080 ca         1 NY8       0.769200
      4 N1          -1.3370    45.9020    82.6360 nb         1 NY8      -0.861000
      5 N3           0.1100    44.9870    84.2860 nb         1 NY8      -0.828000
      6 CAC          0.7340    50.7480    81.6150 c3         1 NY8       0.149100
      7 NBL         -0.1630    50.7830    82.7500 n3         1 NY8      -0.711600
      8 CAD         -1.1470    51.8280    82.5750 c3         1 NY8       0.149100
      9 CAR         -0.7710    49.4810    82.9570 c3         1 NY8       0.155800
     10 CAN         -1.4990    49.3380    84.2850 c3         1 NY8      -0.090400
     11 CAO         -2.0390    47.9280    84.5010 c3         1 NY8       0.236800
     12 C2          -0.7360    45.8960    83.8380 ca         1 NY8       0.958900
     13 CAL          1.2720    42.9560    83.8820 ca         1 NY8      -0.289300
     14 CBD          1.5700    41.8800    83.0870 ca         1 NY8       0.166100
     15 OAZ          2.4190    40.8970    83.4100 os         1 NY8      -0.295900
     16 CAA          3.0580    40.9500    84.6710 c3         1 NY8       0.120700
     17 CBE          0.9550    41.7460    81.8040 ca         1 NY8       0.083100
     18 OBA          1.3070    40.6430    81.1150 os         1 NY8      -0.295900
     19 CAB          0.7150    40.4390    79.8510 c3         1 NY8       0.122700
     20 CAM          0.0810    42.7090    81.3770 ca         1 NY8      -0.149000
     21 NAY         -1.6900    44.9140    80.6000 nu         1 NY8      -0.873900
     22 CBK         -2.4080    46.0280    79.9930 c6         1 NY8       0.259500
     23 CAQ         -3.7160    46.3740    80.7010 c6         1 NY8      -0.091900
     24 CAT         -4.3810    47.5680    80.0360 c6         1 NY8       0.172300
     25 CAP         -1.5240    47.2610    79.8060 c6         1 NY8      -0.091900
     26 CAS         -2.3100    48.4240    79.2220 c6         1 NY8       0.172300
     27 NBM         -3.4810    48.7070    80.0280 n3         1 NY8      -0.725600
     28 CAU         -4.1340    49.9370    79.6380 c3         1 NY8       0.218100
     29 CBB         -5.1320    50.4140    80.6610 ca         1 NY8      -0.081300
     30 CAK         -6.3560    50.8990    80.2860 ca         1 NY8      -0.117000
     31 CBH         -7.2750    51.4060    81.2360 ca         1 NY8      -0.037000
     32 CAI         -8.5400    51.9130    80.8580 ca         1 NY8      -0.116000
     33 CAF         -9.4080    52.3990    81.7990 ca         1 NY8      -0.127000
     34 CAE         -9.0520    52.4000    83.1640 ca         1 NY8      -0.125000
     35 CAH         -7.8350    51.9120    83.5590 ca         1 NY8      -0.117000
     36 CBG         -6.9190    51.4040    82.6090 ca         1 NY8      -0.034000
     37 CAJ         -5.6530    50.8890    82.9790 ca         1 NY8      -0.125000
     38 CAG         -4.7890    50.4100    82.0360 ca         1 NY8      -0.107000
     39 H1           1.2200    51.7160    81.4890 h1         1 NY8       0.028033
     40 H2           1.5140    50.0010    81.7740 h1         1 NY8       0.028033
     41 H3           0.2250    50.5050    80.6680 h1         1 NY8       0.028033
     42 H5          -0.6490    52.7880    82.4280 h1         1 NY8       0.028033
     43 H6          -1.8060    51.6570    81.7060 h1         1 NY8       0.028033
     44 H7          -1.7830    51.9250    83.4560 h1         1 NY8       0.028033
     45 H8           0.0270    48.7350    82.9150 h1         1 NY8       0.045200
     46 H9          -1.4690    49.2330    82.1370 h1         1 NY8       0.045200
     47 H10         -2.3500    50.0230    84.3360 hc         1 NY8       0.047200
     48 H11         -0.8280    49.6100    85.1050 hc         1 NY8       0.047200
     49 H12         -2.6730    47.6420    83.6630 h1         1 NY8       0.053700
     50 H13         -2.6740    47.9240    85.3910 h1         1 NY8       0.053700
     51 H14         -0.5720    46.8700    85.5740 hn         1 NY8       0.442800
     52 H15          1.7180    43.0770    84.8600 ha         1 NY8       0.156000
     53 H16          3.7000    40.0750    84.7270 h1         1 NY8       0.043700
     54 H17          3.6720    41.8480    84.7780 h1         1 NY8       0.043700
     55 H18          2.3380    40.9150    85.4920 h1         1 NY8       0.043700
     56 H19          1.1130    39.5020    79.4690 h1         1 NY8       0.037367
     57 H20         -0.3740    40.3570    79.9180 h1         1 NY8       0.037367
     58 H21          0.9630    41.2390    79.1480 h1         1 NY8       0.037367
     59 H22         -0.3800    42.5990    80.4040 ha         1 NY8       0.123000
     60 H23         -1.4450    44.1760    79.9650 hn         1 NY8       0.433800
     61 H24         -2.6760    45.6660    78.9960 h1         1 NY8       0.035700
     62 H25         -4.3870    45.5120    80.6700 hc         1 NY8       0.063700
     63 H26         -3.5290    46.6100    81.7480 hc         1 NY8       0.063700
     64 H27         -5.2870    47.8300    80.5860 h1         1 NY8       0.032200
     65 H28         -4.6990    47.3060    79.0100 h1         1 NY8       0.032200
     66 H29         -0.6920    47.0140    79.1410 hc         1 NY8       0.063700
     67 H30         -1.0990    47.5630    80.7630 hc         1 NY8       0.063700
     68 H31         -1.6730    49.3130    79.2020 h1         1 NY8       0.032200
     69 H32         -2.5850    48.2050    78.1750 h1         1 NY8       0.032200
     70 H34         -3.3580    50.7030    79.5330 h1         1 NY8       0.037700
     71 H35         -4.6260    49.8640    78.6540 h1         1 NY8       0.037700
     72 H36         -6.6410    50.9000    79.2390 ha         1 NY8       0.128000
     73 H37         -8.8130    51.9140    79.8090 ha         1 NY8       0.129000
     74 H38        -10.3730    52.7870    81.4980 ha         1 NY8       0.130000
     75 H39         -9.7460    52.7880    83.8980 ha         1 NY8       0.131000
     76 H40         -7.5590    51.9100    84.6070 ha         1 NY8       0.131000
     77 H41         -5.3750    50.8800    84.0260 ha         1 NY8       0.130000
     78 H42         -3.8280    50.0150    82.3360 ha         1 NY8       0.147000
     79 NAX         -1.0100    46.9290    84.6690 nu         1 NY8      -0.876900
@<TRIPOS>BOND
     1     1     2 ar  
     2     1     5 ar  
     3     1    13 ar  
     4     2     3 ar  
     5     2    20 ar  
     6     3     4 ar  
     7     3    21 1   
     8     4    12 ar  
     9     5    12 ar  
    10     6     7 1   
    11     6    39 1   
    12     6    40 1   
    13     6    41 1   
    14     7     8 1   
    15     7     9 1   
    16     8    42 1   
    17     8    43 1   
    18     8    44 1   
    19     9    10 1   
    20     9    45 1   
    21     9    46 1   
    22    10    11 1   
    23    10    47 1   
    24    10    48 1   
    25    11    49 1   
    26    11    50 1   
    27    11    79 1   
    28    12    79 1   
    29    13    14 ar  
    30    13    52 1   
    31    14    15 1   
    32    14    17 ar  
    33    15    16 1   
    34    16    53 1   
    35    16    54 1   
    36    16    55 1   
    37    17    18 1   
    38    17    20 ar  
    39    18    19 1   
    40    19    56 1   
    41    19    57 1   
    42    19    58 1   
    43    20    59 1   
    44    21    22 1   
    45    21    60 1   
    46    22    23 1   
    47    22    25 1   
    48    22    61 1   
    49    23    24 1   
    50    23    62 1   
    51    23    63 1   
    52    24    27 1   
    53    24    64 1   
    54    24    65 1   
    55    25    26 1   
    56    25    66 1   
    57    25    67 1   
    58    26    27 1   
    59    26    68 1   
    60    26    69 1   
    61    27    28 1   
    62    28    29 1   
    63    28    70 1   
    64    28    71 1   
    65    29    30 ar  
    66    29    38 ar  
    67    30    31 ar  
    68    30    72 1   
    69    31    32 ar  
    70    31    36 ar  
    71    32    33 ar  
    72    32    73 1   
    73    33    34 ar  
    74    33    74 1   
    75    34    35 ar  
    76    34    75 1   
    77    35    36 ar  
    78    35    76 1   
    79    36    37 ar  
    80    37    38 ar  
    81    37    77 1   
    82    38    78 1   
    83    51    79 1   
@<TRIPOS>SUBSTRUCTURE
     1 NY8         1 TEMP              0 ****  ****    0 ROOT
