@<TRIPOS>MOLECULE
NY9
   58    60     1     0     0
SMALL
No Charge or Current Charge


@<TRIPOS>ATOM
      1 O2          -6.1040    18.6010   -37.6160 o          1 NY9      -0.501000
      2 C9          -5.2000    18.4270   -36.8090 c          1 NY9       0.672300
      3 O           -4.0600    19.1710   -36.9020 os         1 NY9      -0.337200
      4 C8          -2.9950    19.0560   -36.0610 ca         1 NY9       0.218100
      5 C22         -1.8820    19.8730   -36.2860 ca         1 NY9      -0.239000
      6 C4          -0.7590    19.7960   -35.4520 ca         1 NY9       0.396000
      7 N            0.3650    20.6270   -35.6790 nh         1 NY9      -0.817400
      8 C2           1.1540    21.1910   -34.5570 c3         1 NY9       0.224800
      9 C3           0.3250    22.0890   -33.6220 c3         1 NY9      -0.120100
     10 C1           0.8270    20.9350   -37.0530 c3         1 NY9       0.224800
     11 C            0.5170    22.3770   -37.4940 c3         1 NY9      -0.120100
     12 C10         -5.2790    17.4320   -35.6930 cc         1 NY9      -0.247400
     13 C20         -4.2200    17.3000   -34.7990 cd         1 NY9       0.059600
     14 C21         -4.2520    16.3380   -33.6230 c3         1 NY9      -0.069900
     15 C7          -3.0240    18.1410   -35.0010 ca         1 NY9      -0.218800
     16 C6          -1.8910    18.0560   -34.1610 ca         1 NY9      -0.011000
     17 C5          -0.7760    18.8780   -34.3890 ca         1 NY9      -0.222000
     18 C11         -6.5870    16.6390   -35.6650 c3         1 NY9      -0.051200
     19 C12         -7.7610    17.4070   -35.0160 c3         1 NY9       0.115000
     20 N1          -7.4910    17.7830   -33.6250 ns         1 NY9      -0.514900
     21 C13         -7.6440    16.9470   -32.5550 c          1 NY9       0.642100
     22 O1          -8.0710    15.8090   -32.6420 o          1 NY9      -0.636100
     23 N2          -7.2600    17.5290   -31.3800 ns         1 NY9      -0.530900
     24 C14         -7.3110    16.8720   -30.0750 c3         1 NY9       0.173300
     25 C15         -8.5450    17.2850   -29.2940 ca         1 NY9      -0.153300
     26 C19         -9.8090    16.7510   -29.6060 ca         1 NY9      -0.060000
     27 C18        -10.9130    17.1690   -28.8470 ca         1 NY9      -0.161000
     28 C17        -10.7210    18.0980   -27.8100 ca         1 NY9       0.335900
     29 N3          -9.5090    18.6160   -27.5020 nb         1 NY9      -0.666000
     30 C16         -8.4460    18.2110   -28.2370 ca         1 NY9       0.345900
     31 H1          -1.9060    20.5770   -37.1100 ha         1 NY9       0.138000
     32 H2           1.6110    20.3830   -33.9710 h1         1 NY9       0.051450
     33 H3           1.9860    21.7920   -34.9500 h1         1 NY9       0.051450
     34 H4           0.9640    22.5060   -32.8340 hc         1 NY9       0.043867
     35 H5          -0.1180    22.9210   -34.1810 hc         1 NY9       0.043867
     36 H6          -0.4810    21.5210   -33.1440 hc         1 NY9       0.043867
     37 H7           0.3670    20.2410   -37.7700 h1         1 NY9       0.051450
     38 H8           1.9110    20.7710   -37.1210 h1         1 NY9       0.051450
     39 H9           0.8590    22.5390   -38.5230 hc         1 NY9       0.043867
     40 H10         -0.5600    22.5750   -37.4550 hc         1 NY9       0.043867
     41 H11          1.0260    23.1010   -36.8470 hc         1 NY9       0.043867
     42 H12         -3.5090    15.5430   -33.7530 hc         1 NY9       0.055367
     43 H13         -4.0260    16.8620   -32.6880 hc         1 NY9       0.055367
     44 H14         -5.2170    15.8530   -33.4660 hc         1 NY9       0.055367
     45 H15         -1.8520    17.3560   -33.3300 ha         1 NY9       0.113000
     46 H16          0.0840    18.7840   -33.7350 ha         1 NY9       0.118000
     47 H17         -6.8850    16.3680   -36.6860 hc         1 NY9       0.068700
     48 H18         -6.4690    15.6710   -35.1680 hc         1 NY9       0.068700
     49 H19         -7.9630    18.3210   -35.5900 h1         1 NY9       0.065700
     50 H20         -8.6670    16.7870   -35.0520 h1         1 NY9       0.065700
     51 H21         -7.1250    18.7080   -33.4420 hn         1 NY9       0.303500
     52 H22         -6.9230    18.4810   -31.4230 hn         1 NY9       0.308500
     53 H23         -7.3020    15.7810   -30.2050 h1         1 NY9       0.057200
     54 H24         -6.4060    17.1420   -29.5140 h1         1 NY9       0.057200
     55 H25         -9.9310    16.0330   -30.4140 ha         1 NY9       0.118000
     56 H26        -11.9080    16.7830   -29.0530 ha         1 NY9       0.123000
     57 H27        -11.5620    18.4380   -27.2070 h4         1 NY9       0.018100
     58 H28         -7.4840    18.6450   -27.9670 h4         1 NY9       0.012100
@<TRIPOS>BOND
     1     1     2 2   
     2     2     3 1   
     3     2    12 1   
     4     3     4 1   
     5     4     5 ar  
     6     4    15 ar  
     7     5     6 ar  
     8     5    31 1   
     9     6     7 1   
    10     6    17 ar  
    11     7     8 1   
    12     7    10 1   
    13     8     9 1   
    14     8    32 1   
    15     8    33 1   
    16     9    34 1   
    17     9    35 1   
    18     9    36 1   
    19    10    11 1   
    20    10    37 1   
    21    10    38 1   
    22    11    39 1   
    23    11    40 1   
    24    11    41 1   
    25    12    13 2   
    26    12    18 1   
    27    13    14 1   
    28    13    15 1   
    29    14    42 1   
    30    14    43 1   
    31    14    44 1   
    32    15    16 ar  
    33    16    17 ar  
    34    16    45 1   
    35    17    46 1   
    36    18    19 1   
    37    18    47 1   
    38    18    48 1   
    39    19    20 1   
    40    19    49 1   
    41    19    50 1   
    42    20    21 1   
    43    20    51 1   
    44    21    22 2   
    45    21    23 1   
    46    23    24 1   
    47    23    52 1   
    48    24    25 1   
    49    24    53 1   
    50    24    54 1   
    51    25    26 ar  
    52    25    30 ar  
    53    26    27 ar  
    54    26    55 1   
    55    27    28 ar  
    56    27    56 1   
    57    28    29 ar  
    58    28    57 1   
    59    29    30 ar  
    60    30    58 1   
@<TRIPOS>SUBSTRUCTURE
     1 NY9         1 TEMP              0 ****  ****    0 ROOT
