@<TRIPOS>MOLECULE
NY9
   58    60     1     0     0
SMALL
abcg2


@<TRIPOS>ATOM
      1 O2          -6.0610    18.6920   -37.5930 o          1 NY9      -0.501000
      2 C9          -5.2100    18.5060   -36.7540 c          1 NY9       0.672300
      3 O           -4.0390    19.1650   -36.9310 os         1 NY9      -0.337200
      4 C8          -2.9990    19.0680   -36.0720 ca         1 NY9       0.218100
      5 C22         -1.8610    19.7810   -36.3990 ca         1 NY9      -0.239000
      6 C4          -0.7290    19.7290   -35.5660 ca         1 NY9       0.396000
      7 N            0.4270    20.3660   -35.8950 nh         1 NY9      -0.817400
      8 C2           1.5710    20.3560   -35.0010 c3         1 NY9       0.224800
      9 C3           1.4950    21.3680   -33.8650 c3         1 NY9      -0.120100
     10 C1           0.5020    21.2110   -37.0740 c3         1 NY9       0.224800
     11 C           -0.1320    22.5880   -36.9110 c3         1 NY9      -0.120100
     12 C10         -5.3480    17.6410   -35.5940 cc         1 NY9      -0.247400
     13 C20         -4.3260    17.5440   -34.6960 cd         1 NY9       0.059600
     14 C21         -4.3930    16.6980   -33.4640 c3         1 NY9      -0.069900
     15 C7          -3.1080    18.2780   -34.9290 ca         1 NY9      -0.218800
     16 C6          -1.9870    18.2610   -34.0880 ca         1 NY9      -0.011000
     17 C5          -0.8420    18.9600   -34.3790 ca         1 NY9      -0.222000
     18 C11         -6.6750    16.9510   -35.4720 c3         1 NY9      -0.051200
     19 C12         -7.7520    17.8400   -34.8390 c3         1 NY9       0.115000
     20 N1          -7.4410    18.2810   -33.5010 ns         1 NY9      -0.514900
     21 C13         -7.5770    17.4600   -32.4260 c          1 NY9       0.642100
     22 O1          -8.1140    16.3590   -32.4920 o          1 NY9      -0.636100
     23 N2          -7.0740    17.9450   -31.2570 ns         1 NY9      -0.530900
     24 C14         -7.2650    17.2350   -30.0210 c3         1 NY9       0.173300
     25 C15         -8.6830    17.2370   -29.5050 ca         1 NY9      -0.153300
     26 C19         -9.1880    16.1560   -28.7930 ca         1 NY9      -0.060000
     27 C18        -10.4810    16.2110   -28.2970 ca         1 NY9      -0.161000
     28 C17        -11.2310    17.3520   -28.5360 ca         1 NY9       0.335900
     29 N3         -10.7680    18.3920   -29.2180 nb         1 NY9      -0.666000
     30 C16         -9.5270    18.3280   -29.6860 ca         1 NY9       0.345900
     31 H1          -1.8730    20.3630   -37.3090 ha         1 NY9       0.138000
     32 H2           1.7150    19.3510   -34.6020 h1         1 NY9       0.051450
     33 H3           2.4560    20.5570   -35.6050 h1         1 NY9       0.051450
     34 H4           2.3740    21.2770   -33.2260 hc         1 NY9       0.043867
     35 H5           1.4640    22.3890   -34.2460 hc         1 NY9       0.043867
     36 H6           0.6140    21.2150   -33.2400 hc         1 NY9       0.043867
     37 H7           0.0560    20.6910   -37.9250 h1         1 NY9       0.051450
     38 H8           1.5570    21.3260   -37.3230 h1         1 NY9       0.051450
     39 H9          -0.0610    23.1430   -37.8460 hc         1 NY9       0.043867
     40 H10         -1.1870    22.5210   -36.6430 hc         1 NY9       0.043867
     41 H11          0.3740    23.1680   -36.1390 hc         1 NY9       0.043867
     42 H12         -3.5350    16.0260   -33.4120 hc         1 NY9       0.055367
     43 H13         -4.3620    17.3220   -32.5690 hc         1 NY9       0.055367
     44 H14         -5.2900    16.0910   -33.4110 hc         1 NY9       0.055367
     45 H15         -2.0100    17.6840   -33.1730 ha         1 NY9       0.113000
     46 H16         -0.0240    18.9020   -33.6770 ha         1 NY9       0.118000
     47 H17         -7.0270    16.6540   -36.4620 hc         1 NY9       0.068700
     48 H18         -6.5890    16.0300   -34.8980 hc         1 NY9       0.068700
     49 H19         -7.9010    18.7300   -35.4500 h1         1 NY9       0.065700
     50 H20         -8.7000    17.3030   -34.8290 h1         1 NY9       0.065700
     51 H21         -6.8680    19.1050   -33.4140 hn         1 NY9       0.303500
     52 H22         -6.7340    18.8910   -31.2100 hn         1 NY9       0.308500
     53 H23         -6.9200    16.2040   -30.1210 h1         1 NY9       0.057200
     54 H24         -6.6140    17.7020   -29.2800 h1         1 NY9       0.057200
     55 H25         -8.5750    15.2760   -28.6340 ha         1 NY9       0.118000
     56 H26        -10.9030    15.3840   -27.7430 ha         1 NY9       0.123000
     57 H27        -12.2470    17.4270   -28.1630 h4         1 NY9       0.018100
     58 H28         -9.1830    19.1940   -30.2430 h4         1 NY9       0.012100
@<TRIPOS>BOND
     1     1     2 2   
     2     2     3 1   
     3     2    12 1   
     4     3     4 1   
     5     4     5 ar  
     6     4    15 ar  
     7     5     6 ar  
     8     5    31 1   
     9     6     7 1   
    10     6    17 ar  
    11     7     8 1   
    12     7    10 1   
    13     8     9 1   
    14     8    32 1   
    15     8    33 1   
    16     9    34 1   
    17     9    35 1   
    18     9    36 1   
    19    10    11 1   
    20    10    37 1   
    21    10    38 1   
    22    11    39 1   
    23    11    40 1   
    24    11    41 1   
    25    12    13 2   
    26    12    18 1   
    27    13    14 1   
    28    13    15 1   
    29    14    42 1   
    30    14    43 1   
    31    14    44 1   
    32    15    16 ar  
    33    16    17 ar  
    34    16    45 1   
    35    17    46 1   
    36    18    19 1   
    37    18    47 1   
    38    18    48 1   
    39    19    20 1   
    40    19    49 1   
    41    19    50 1   
    42    20    21 1   
    43    20    51 1   
    44    21    22 2   
    45    21    23 1   
    46    23    24 1   
    47    23    52 1   
    48    24    25 1   
    49    24    53 1   
    50    24    54 1   
    51    25    26 ar  
    52    25    30 ar  
    53    26    27 ar  
    54    26    55 1   
    55    27    28 ar  
    56    27    56 1   
    57    28    29 ar  
    58    28    57 1   
    59    29    30 ar  
    60    30    58 1   
@<TRIPOS>SUBSTRUCTURE
     1 NY9         1 TEMP              0 ****  ****    0 ROOT
