@<TRIPOS>MOLECULE
NYA
   87    92     1     0     0
SMALL
abcg2


@<TRIPOS>ATOM
      1 C35         -7.8430    -0.4470     1.0200 c6         1 NYA      -0.059033
      2 C36         -8.9530    -0.1740     0.0020 c6         1 NYA      -0.068067
      3 C38         -7.7850     0.7030     2.0280 c6         1 NYA      -0.068067
      4 C31         -8.6620     1.1390    -0.7270 c6         1 NYA      -0.059033
      5 C32         -8.6070     2.2860     0.2810 c6         1 NYA      -0.068067
      6 C33         -7.4930     2.0120     1.2920 c6         1 NYA      -0.059033
      7 C17         -0.4610    -1.2260    -0.2800 c5         1 NYA      -0.051700
      8 C21         -2.1610    -2.2830     1.3380 c3         1 NYA      -0.082100
      9 C16         -0.0820     0.0720    -1.0380 c5         1 NYA      -0.075400
     10 C13          0.8380    -1.6250     0.4570 c5         1 NYA      -0.036000
     11 C15          1.4570     0.1290    -1.0980 c5         1 NYA      -0.070400
     12 C14          1.8810    -1.2540    -0.6270 c5         1 NYA      -0.035500
     13 C8           3.2830    -1.5290    -0.1820 c2         1 NYA      -0.080400
     14 C12          0.9950    -3.1170     0.7580 c6         1 NYA      -0.063400
     15 C18          1.0380    -0.7870     1.7210 c3         1 NYA      -0.078100
     16 C7           4.2240    -0.5770    -0.0780 ce         1 NYA      -0.187000
     17 C9           3.4700    -2.9850     0.1460 c6         1 NYA      -0.042200
     18 C6           5.5980    -0.7790     0.3470 ce         1 NYA      -0.162000
     19 C23         -3.6750     0.3410    -0.3110 c2         1 NYA      -0.257200
     20 C22         -2.8730    -0.7110    -0.4200 c2         1 NYA      -0.206200
     21 C24         -4.8360     0.6550    -1.2170 c3         1 NYA       0.212500
     22 C20         -1.7550    -1.0490     0.5260 c3         1 NYA      -0.018500
     23 C29         -6.1830     0.7420    -0.4550 c6         1 NYA      -0.073000
     24 C28          9.7210     2.6720     0.0080 c2         1 NYA      -0.298000
     25 C30         -7.3200     1.0230    -1.4510 c6         1 NYA      -0.062067
     26 C34         -6.1500     1.8900     0.5670 c6         1 NYA      -0.062067
     27 C37         -6.4950    -0.5580     0.3020 c6         1 NYA      -0.062067
     28 C5           6.5390     0.1630     0.5130 c2         1 NYA      -0.105400
     29 C10          7.9300    -0.2050     0.9400 c6         1 NYA      -0.032200
     30 C4           6.3460     1.6350     0.2920 c6         1 NYA      -0.032200
     31 C11          2.4270    -3.4710     1.1600 c6         1 NYA      -0.071400
     32 C1           8.9650     0.3120    -0.0570 c6         1 NYA       0.212000
     33 C2           8.7600     1.7940    -0.2570 c2         1 NYA      -0.199400
     34 C3           7.3730     2.1750    -0.7110 c6         1 NYA       0.212000
     35 O3          -4.9020    -0.2200    -2.3200 oh         1 NYA      -0.653000
     36 O2           7.1750     3.5610    -0.8270 oh         1 NYA      -0.654000
     37 O1           8.7880    -0.4040    -1.2640 oh         1 NYA      -0.654000
     38 H35         -8.0470    -1.3850     1.5440 hc         1 NYA       0.048700
     39 H36         -9.0170    -0.9980    -0.7170 hc         1 NYA       0.039367
     40 H36A        -9.9230    -0.1230     0.5060 hc         1 NYA       0.039367
     41 H38         -8.7300     0.7760     2.5750 hc         1 NYA       0.039367
     42 H38A        -7.0050     0.5100     2.7720 hc         1 NYA       0.039367
     43 H31         -9.4490     1.3290    -1.4630 hc         1 NYA       0.048700
     44 H32         -8.4270     3.2340    -0.2360 hc         1 NYA       0.039367
     45 H32A        -9.5680     2.3830     0.7960 hc         1 NYA       0.039367
     46 H33         -7.4360     2.8340     2.0120 hc         1 NYA       0.048700
     47 H17         -0.6470    -2.0180    -1.0200 hc         1 NYA       0.045700
     48 H21         -1.4640    -2.4820     2.1510 hc         1 NYA       0.034367
     49 H21A        -3.1460    -2.1350     1.7830 hc         1 NYA       0.034367
     50 H21B        -2.2100    -3.1760     0.7110 hc         1 NYA       0.034367
     51 H16         -0.5230     0.0820    -2.0350 hc         1 NYA       0.044700
     52 H16A        -0.4840     0.9470    -0.5200 hc         1 NYA       0.044700
     53 H15          1.8320     0.3540    -2.0980 hc         1 NYA       0.044700
     54 H15A         1.8400     0.9110    -0.4380 hc         1 NYA       0.044700
     55 H14          1.6860    -1.9480    -1.4600 hc         1 NYA       0.052700
     56 H12          0.3140    -3.4420     1.5460 hc         1 NYA       0.039700
     57 H12A         0.7180    -3.6820    -0.1400 hc         1 NYA       0.039700
     58 H18          0.3710    -1.1150     2.5210 hc         1 NYA       0.034033
     59 H18A         2.0580    -0.8640     2.0980 hc         1 NYA       0.034033
     60 H18B         0.8380     0.2720     1.5520 hc         1 NYA       0.034033
     61 H7           3.9380     0.4340    -0.3440 ha         1 NYA       0.173000
     62 H9           3.3540    -3.5660    -0.7780 hc         1 NYA       0.046700
     63 H9A          4.4700    -3.2040     0.5190 hc         1 NYA       0.046700
     64 H6           5.8990    -1.8010     0.5540 ha         1 NYA       0.169000
     65 H23         -3.5040     1.0450     0.4980 ha         1 NYA       0.173000
     66 H22         -3.0180    -1.4270    -1.2270 ha         1 NYA       0.170000
     67 H24         -4.6620     1.6490    -1.6520 h1         1 NYA       0.076700
     68 H20         -1.6230    -0.2110     1.2200 hc         1 NYA       0.050700
     69 H28         10.6960     2.3430     0.3480 ha         1 NYA       0.167500
     70 H28A         9.5820     3.7410    -0.0910 ha         1 NYA       0.167500
     71 H30         -7.3800     0.2240    -2.1940 hc         1 NYA       0.041533
     72 H30A        -7.1090     1.9480    -2.0000 hc         1 NYA       0.041533
     73 H34         -5.9070     2.8330     0.0630 hc         1 NYA       0.041533
     74 H34A        -5.3640     1.7180     1.3080 hc         1 NYA       0.041533
     75 H37         -5.7070    -0.7570     1.0350 hc         1 NYA       0.041533
     76 H37A        -6.5160    -1.4180    -0.3780 hc         1 NYA       0.041533
     77 H10          8.1570     0.2490     1.9110 hc         1 NYA       0.058450
     78 H10A         8.0350    -1.2860     1.0600 hc         1 NYA       0.058450
     79 H4           5.3410     1.8740    -0.0560 hc         1 NYA       0.058450
     80 H4A          6.4920     2.1630     1.2430 hc         1 NYA       0.058450
     81 H11          2.6540    -3.0450     2.1400 hc         1 NYA       0.040200
     82 H11A         2.5170    -4.5540     1.2740 hc         1 NYA       0.040200
     83 H1           9.9690     0.1420     0.3540 h1         1 NYA       0.042200
     84 H3           7.1800     1.6790    -1.6730 h1         1 NYA       0.042200
     85 HO3         -5.1280    -1.1010    -2.0020 ho         1 NYA       0.440000
     86 HO2          7.6890     3.8820    -1.5740 ho         1 NYA       0.441500
     87 HO1          9.4390    -0.0840    -1.8970 ho         1 NYA       0.441500
@<TRIPOS>BOND
     1     1     2 1   
     2     1     3 1   
     3     1    27 1   
     4     1    38 1   
     5     2     4 1   
     6     2    39 1   
     7     2    40 1   
     8     3     6 1   
     9     3    41 1   
    10     3    42 1   
    11     4     5 1   
    12     4    25 1   
    13     4    43 1   
    14     5     6 1   
    15     5    44 1   
    16     5    45 1   
    17     6    26 1   
    18     6    46 1   
    19     7     9 1   
    20     7    10 1   
    21     7    22 1   
    22     7    47 1   
    23     8    22 1   
    24     8    48 1   
    25     8    49 1   
    26     8    50 1   
    27     9    11 1   
    28     9    51 1   
    29     9    52 1   
    30    10    12 1   
    31    10    14 1   
    32    10    15 1   
    33    11    12 1   
    34    11    53 1   
    35    11    54 1   
    36    12    13 1   
    37    12    55 1   
    38    13    16 2   
    39    13    17 1   
    40    14    31 1   
    41    14    56 1   
    42    14    57 1   
    43    15    58 1   
    44    15    59 1   
    45    15    60 1   
    46    16    18 1   
    47    16    61 1   
    48    17    31 1   
    49    17    62 1   
    50    17    63 1   
    51    18    28 2   
    52    18    64 1   
    53    19    20 2   
    54    19    21 1   
    55    19    65 1   
    56    20    22 1   
    57    20    66 1   
    58    21    23 1   
    59    21    35 1   
    60    21    67 1   
    61    22    68 1   
    62    23    25 1   
    63    23    26 1   
    64    23    27 1   
    65    24    33 2   
    66    24    69 1   
    67    24    70 1   
    68    25    71 1   
    69    25    72 1   
    70    26    73 1   
    71    26    74 1   
    72    27    75 1   
    73    27    76 1   
    74    28    29 1   
    75    28    30 1   
    76    29    32 1   
    77    29    77 1   
    78    29    78 1   
    79    30    34 1   
    80    30    79 1   
    81    30    80 1   
    82    31    81 1   
    83    31    82 1   
    84    32    33 1   
    85    32    37 1   
    86    32    83 1   
    87    33    34 1   
    88    34    36 1   
    89    34    84 1   
    90    35    85 1   
    91    36    86 1   
    92    37    87 1   
@<TRIPOS>SUBSTRUCTURE
     1 NYA         1 TEMP              0 ****  ****    0 ROOT
