@<TRIPOS>MOLECULE
NYA
   87    92     1     0     0
SMALL
No Charge or Current Charge


@<TRIPOS>ATOM
      1 C35         -7.8700    -0.9470    -0.0660 c6         1 NYA      -0.059033
      2 C36         -8.8610    -0.2140    -1.0140 c6         1 NYA      -0.068067
      3 C38         -8.1110    -0.4790     1.3980 c6         1 NYA      -0.068067
      4 C31         -8.6400     1.3220    -0.9140 c6         1 NYA      -0.059033
      5 C32         -8.8810     1.7870     0.5500 c6         1 NYA      -0.068067
      6 C33         -7.8880     1.0570     1.4980 c6         1 NYA      -0.059033
      7 C17         -0.6340    -1.1720     0.1670 c5         1 NYA      -0.051700
      8 C21         -2.4880    -2.2750     1.6440 c3         1 NYA      -0.082100
      9 C16          0.0360     0.6550    -0.7550 c5         1 NYA      -0.075400
     10 C13          0.7100    -1.4900     0.9160 c5         1 NYA      -0.036000
     11 C15          1.5590     0.4660    -0.5410 c5         1 NYA      -0.070400
     12 C14          1.7550    -1.0800    -0.2300 c5         1 NYA      -0.035500
     13 C8           3.1900    -1.4790     0.2200 c2         1 NYA      -0.080400
     14 C12          0.8440    -3.0100     1.2710 c6         1 NYA      -0.063400
     15 C18          0.8750    -0.6460     2.2210 c3         1 NYA      -0.078100
     16 C7           4.2370    -0.5990     0.0340 ce         1 NYA      -0.187000
     17 C9           3.3550    -2.9190     0.7730 c6         1 NYA      -0.042200
     18 C6           5.6940    -0.8200     0.3280 ce         1 NYA      -0.162000
     19 C23         -3.5860     0.7600     0.0850 c2         1 NYA      -0.257200
     20 C22         -3.0390    -0.4670     0.0150 c2         1 NYA      -0.206200
     21 C24         -4.6770     1.3190    -0.8090 c3         1 NYA       0.212500
     22 C20         -1.9690    -1.0010     0.9450 c3         1 NYA      -0.018500
     23 C29         -6.1480     0.9350    -0.3960 c6         1 NYA      -0.073000
     24 C28          9.9790     2.4450    -1.0400 c2         1 NYA      -0.298000
     25 C30         -7.1790     1.6600    -1.3300 c6         1 NYA      -0.062067
     26 C34         -6.4280     1.3950     1.0780 c6         1 NYA      -0.062067
     27 C37         -6.4080    -0.6100    -0.4810 c6         1 NYA      -0.062067
     28 C5           6.6920     0.1000     0.2680 c2         1 NYA      -0.105400
     29 C10          8.1390    -0.2780     0.5820 c6         1 NYA      -0.032200
     30 C4           6.5400     1.5820    -0.0870 c6         1 NYA      -0.032200
     31 C11          2.2530    -3.3880     1.7830 c6         1 NYA      -0.071400
     32 C1           9.1250     0.1400    -0.5410 c6         1 NYA       0.212000
     33 C2           8.9320     1.5970    -0.9580 c2         1 NYA      -0.199400
     34 C3           7.4710     1.9700    -1.2610 c6         1 NYA       0.212000
     35 O3          -4.3670     0.9390    -2.1510 oh         1 NYA      -0.653000
     36 O2           7.3360     3.3660    -1.5450 oh         1 NYA      -0.654000
     37 O1           8.9710    -0.6920    -1.6910 oh         1 NYA      -0.654000
     38 H35         -8.0300    -2.0320    -0.1350 hc         1 NYA       0.048700
     39 H36         -8.7160    -0.5520    -2.0490 hc         1 NYA       0.039367
     40 H36A        -9.8970    -0.4660    -0.7470 hc         1 NYA       0.039367
     41 H38         -9.1320    -0.7360     1.7150 hc         1 NYA       0.039367
     42 H38A        -7.4320    -1.0060     2.0820 hc         1 NYA       0.039367
     43 H31         -9.3420     1.8380    -1.5840 hc         1 NYA       0.048700
     44 H32         -8.7500     2.8760     0.6290 hc         1 NYA       0.039367
     45 H32A        -9.9170     1.5770     0.8500 hc         1 NYA       0.039367
     46 H33         -8.0580     1.3860     2.5320 hc         1 NYA       0.048700
     47 H17         -0.8210    -1.9230    -0.6100 hc         1 NYA       0.045700
     48 H21         -1.8790    -2.5190     2.5200 hc         1 NYA       0.034367
     49 H21A        -3.5150    -2.1250     1.9990 hc         1 NYA       0.034367
     50 H21B        -2.4850    -3.1310     0.9580 hc         1 NYA       0.034367
     51 H16         -0.2480     0.7030    -1.8130 hc         1 NYA       0.044700
     52 H16A        -0.3450     1.5480    -0.2480 hc         1 NYA       0.044700
     53 H15          2.1070     0.7760    -1.4380 hc         1 NYA       0.044700
     54 H15A         1.9160     1.0950     0.2820 hc         1 NYA       0.044700
     55 H14          1.5380    -1.6500    -1.1420 hc         1 NYA       0.052700
     56 H12          0.1110    -3.3040     2.0310 hc         1 NYA       0.039700
     57 H12A         0.6170    -3.6150     0.3820 hc         1 NYA       0.039700
     58 H18          0.2480    -1.0400     3.0300 hc         1 NYA       0.034033
     59 H18A         1.9110    -0.6450     2.5800 hc         1 NYA       0.034033
     60 H18B         0.5840     0.4000     2.0770 hc         1 NYA       0.034033
     61 H7           4.0350     0.3730    -0.3970 ha         1 NYA       0.173000
     62 H9           3.3580    -3.6090    -0.0820 hc         1 NYA       0.046700
     63 H9A          4.3280    -3.0490     1.2600 hc         1 NYA       0.046700
     64 H6           5.9680    -1.8380     0.6040 ha         1 NYA       0.169000
     65 H23         -3.2560     1.4620     0.8520 ha         1 NYA       0.173000
     66 H22         -3.3700    -1.1810    -0.7420 ha         1 NYA       0.170000
     67 H24         -4.6150     2.4150    -0.7340 h1         1 NYA       0.076700
     68 H20         -1.8120    -0.2550     1.7330 hc         1 NYA       0.050700
     69 H28         10.9950     2.1190    -0.8120 ha         1 NYA       0.167500
     70 H28A         9.8760     3.4920    -1.3250 ha         1 NYA       0.167500
     71 H30         -7.0230     1.3650    -2.3770 hc         1 NYA       0.041533
     72 H30A        -7.0260     2.7480    -1.2940 hc         1 NYA       0.041533
     73 H34         -6.2530     2.4750     1.1780 hc         1 NYA       0.041533
     74 H34A        -5.7300     0.9070     1.7720 hc         1 NYA       0.041533
     75 H37         -5.7140    -1.1540     0.1750 hc         1 NYA       0.041533
     76 H37A        -6.2200    -0.9760    -1.4990 hc         1 NYA       0.041533
     77 H10          8.4370     0.2180     1.5160 hc         1 NYA       0.058450
     78 H10A         8.2340    -1.3560     0.7720 hc         1 NYA       0.058450
     79 H4           5.5110     1.8550    -0.3390 hc         1 NYA       0.058450
     80 H4A          6.7990     2.1860     0.7940 hc         1 NYA       0.058450
     81 H11          2.4330    -2.9320     2.7650 hc         1 NYA       0.040200
     82 H11A         2.3210    -4.4740     1.9330 hc         1 NYA       0.040200
     83 H1          10.1450     0.0160    -0.1440 h1         1 NYA       0.042200
     84 H3           7.1490     1.3930    -2.1420 h1         1 NYA       0.042200
     85 HO3         -3.3940     0.8250    -2.1690 ho         1 NYA       0.440000
     86 HO2          7.9280     3.5410    -2.3070 ho         1 NYA       0.441500
     87 HO1          9.5560    -0.3060    -2.3780 ho         1 NYA       0.441500
@<TRIPOS>BOND
     1     1     2 1   
     2     1     3 1   
     3     1    27 1   
     4     1    38 1   
     5     2     4 1   
     6     2    39 1   
     7     2    40 1   
     8     3     6 1   
     9     3    41 1   
    10     3    42 1   
    11     4     5 1   
    12     4    25 1   
    13     4    43 1   
    14     5     6 1   
    15     5    44 1   
    16     5    45 1   
    17     6    26 1   
    18     6    46 1   
    19     7     9 1   
    20     7    10 1   
    21     7    22 1   
    22     7    47 1   
    23     8    22 1   
    24     8    48 1   
    25     8    49 1   
    26     8    50 1   
    27     9    11 1   
    28     9    51 1   
    29     9    52 1   
    30    10    12 1   
    31    10    14 1   
    32    10    15 1   
    33    11    12 1   
    34    11    53 1   
    35    11    54 1   
    36    12    13 1   
    37    12    55 1   
    38    13    16 2   
    39    13    17 1   
    40    14    31 1   
    41    14    56 1   
    42    14    57 1   
    43    15    58 1   
    44    15    59 1   
    45    15    60 1   
    46    16    18 1   
    47    16    61 1   
    48    17    31 1   
    49    17    62 1   
    50    17    63 1   
    51    18    28 2   
    52    18    64 1   
    53    19    20 2   
    54    19    21 1   
    55    19    65 1   
    56    20    22 1   
    57    20    66 1   
    58    21    23 1   
    59    21    35 1   
    60    21    67 1   
    61    22    68 1   
    62    23    25 1   
    63    23    26 1   
    64    23    27 1   
    65    24    33 2   
    66    24    69 1   
    67    24    70 1   
    68    25    71 1   
    69    25    72 1   
    70    26    73 1   
    71    26    74 1   
    72    27    75 1   
    73    27    76 1   
    74    28    29 1   
    75    28    30 1   
    76    29    32 1   
    77    29    77 1   
    78    29    78 1   
    79    30    34 1   
    80    30    79 1   
    81    30    80 1   
    82    31    81 1   
    83    31    82 1   
    84    32    33 1   
    85    32    37 1   
    86    32    83 1   
    87    33    34 1   
    88    34    36 1   
    89    34    84 1   
    90    35    85 1   
    91    36    86 1   
    92    37    87 1   
@<TRIPOS>SUBSTRUCTURE
     1 NYA         1 TEMP              0 ****  ****    0 ROOT
