@<TRIPOS>MOLECULE
NYB
   28    27     1     0     0
SMALL
bcc


@<TRIPOS>ATOM
      1 N            2.5910     1.1710    17.3900 n7         1 NYB      -0.783200
      2 CA           1.4750     2.0330    17.7330 c3         1 NYB       0.041500
      3 CB           0.8500     1.8370    19.1190 c3         1 NYB       0.023700
      4 SG           1.7140     2.6650    20.4930 ss         1 NYB      -0.276200
      5 CD           1.6640     1.3770    21.7920 c3         1 NYB      -0.007600
      6 CE1          1.9820     2.0750    23.1090 c3         1 NYB      -0.067100
      7 CE2          2.6120     0.2170    21.5010 c3         1 NYB      -0.071400
      8 CF           2.4700    -0.9460    22.4760 c3         1 NYB      -0.088100
      9 CN           3.8630     1.4050    18.0440 c3         1 NYB       0.164100
     10 C            1.7530     3.5280    17.4100 c          1 NYB       0.936600
     11 O            1.2390     4.3580    18.1870 o          1 NYB      -0.818800
     12 OXT          2.4170     3.7730    16.3890 o          1 NYB      -0.818800
     13 H            2.3170     0.2070    17.5270 hn         1 NYB       0.306800
     14 HA           0.6720     1.7420    17.0390 h1         1 NYB       0.037700
     15 HN1          4.6120     0.7450    17.6020 h1         1 NYB       0.019367
     16 HN2          4.1940     2.4280    17.8630 h1         1 NYB       0.019367
     17 HN3          3.8760     1.2430    19.1250 h1         1 NYB       0.019367
     18 HB1         -0.1800     2.1960    19.1030 h1         1 NYB       0.033200
     19 HB2          0.8050     0.7690    19.3450 h1         1 NYB       0.033200
     20 HD           0.6380     0.9960    21.8340 h1         1 NYB       0.045700
     21 HE11         1.9310     1.3780    23.9450 hc         1 NYB       0.031033
     22 HE12         2.9880     2.5000    23.0920 hc         1 NYB       0.031033
     23 HE13         1.2770     2.8820    23.3090 hc         1 NYB       0.031033
     24 HE21         2.4300    -0.1520    20.4880 hc         1 NYB       0.047200
     25 HE22         3.6400     0.5920    21.5070 hc         1 NYB       0.047200
     26 HF1          3.1180    -1.7740    22.1880 hc         1 NYB       0.021700
     27 HF2          2.7370    -0.6640    23.4950 hc         1 NYB       0.021700
     28 HF3          1.4450    -1.3210    22.4940 hc         1 NYB       0.021700
@<TRIPOS>BOND
     1     1     2 1   
     2     1     9 1   
     3     1    13 1   
     4     2     3 1   
     5     2    10 1   
     6     2    14 1   
     7     3     4 1   
     8     3    18 1   
     9     3    19 1   
    10     4     5 1   
    11     5     6 1   
    12     5     7 1   
    13     5    20 1   
    14     6    21 1   
    15     6    22 1   
    16     6    23 1   
    17     7     8 1   
    18     7    24 1   
    19     7    25 1   
    20     8    26 1   
    21     8    27 1   
    22     8    28 1   
    23     9    15 1   
    24     9    16 1   
    25     9    17 1   
    26    10    11 1   
    27    10    12 1   
@<TRIPOS>SUBSTRUCTURE
     1 NYB         1 TEMP              0 ****  ****    0 ROOT
