@<TRIPOS>MOLECULE
NYB
   28    27     1     0     0
SMALL
No Charge or Current Charge


@<TRIPOS>ATOM
      1 N            2.5430     1.3900    16.9110 n7         1 NYB      -0.838400
      2 CA           1.4230     2.1240    17.6320 c3         1 NYB       0.041500
      3 CB           1.1910     1.6000    19.0790 c3         1 NYB       0.071600
      4 SG           2.3660     2.3020    20.3340 ss         1 NYB      -0.372000
      5 CD           1.8660     1.3360    21.8280 c3         1 NYB       0.040300
      6 CE1          2.0950     2.2060    23.0830 c3         1 NYB      -0.067100
      7 CE2          2.6340    -0.0090    21.8510 c3         1 NYB      -0.071400
      8 CF           2.1900    -0.9760    22.9690 c3         1 NYB      -0.088100
      9 CN           3.9080     1.4740    17.4750 c3         1 NYB       0.164100
     10 C            1.4140     3.7110    17.5890 c          1 NYB       0.726000
     11 O            0.3540     4.2750    17.8380 o          1 NYB      -0.713500
     12 OXT          2.4050     4.3250    17.2080 o          1 NYB      -0.713500
     13 H            2.2950     0.3960    16.8500 hn         1 NYB       0.362000
     14 HA           0.5060     1.8540    17.0910 h1         1 NYB       0.037700
     15 HN1          4.6290     1.0030    16.7940 h1         1 NYB       0.019367
     16 HN2          4.2210     2.5150    17.6280 h1         1 NYB       0.019367
     17 HN3          3.9700     0.9470    18.4360 h1         1 NYB       0.019367
     18 HB1          0.1740     1.8690    19.3930 h1         1 NYB       0.033200
     19 HB2          1.2610     0.5050    19.0900 h1         1 NYB       0.033200
     20 HD           0.7910     1.1290    21.7500 h1         1 NYB       0.045700
     21 HE11         1.7200     1.7050    23.9830 hc         1 NYB       0.031033
     22 HE12         3.1620     2.4180    23.2220 hc         1 NYB       0.031033
     23 HE13         1.5640     3.1610    22.9880 hc         1 NYB       0.031033
     24 HE21         2.4940    -0.5150    20.8880 hc         1 NYB       0.047200
     25 HE22         3.7090     0.1850    21.9480 hc         1 NYB       0.047200
     26 HF1          2.7120    -1.9350    22.8690 hc         1 NYB       0.021700
     27 HF2          2.4210    -0.5680    23.9600 hc         1 NYB       0.021700
     28 HF3          1.1120    -1.1660    22.9110 hc         1 NYB       0.021700
@<TRIPOS>BOND
     1     1     2 1   
     2     1     9 1   
     3     1    13 1   
     4     2     3 1   
     5     2    10 1   
     6     2    14 1   
     7     3     4 1   
     8     3    18 1   
     9     3    19 1   
    10     4     5 1   
    11     5     6 1   
    12     5     7 1   
    13     5    20 1   
    14     6    21 1   
    15     6    22 1   
    16     6    23 1   
    17     7     8 1   
    18     7    24 1   
    19     7    25 1   
    20     8    26 1   
    21     8    27 1   
    22     8    28 1   
    23     9    15 1   
    24     9    16 1   
    25     9    17 1   
    26    10    11 1   
    27    10    12 1   
@<TRIPOS>SUBSTRUCTURE
     1 NYB         1 TEMP              0 ****  ****    0 ROOT
