@<TRIPOS>MOLECULE
NYC
   42    44     1     0     0
SMALL
No Charge or Current Charge


@<TRIPOS>ATOM
      1 C25         -4.6320     2.9620    -0.2820 c3         1 NYC      -0.126100
      2 C23         -3.3500     2.1240    -0.4900 c3         1 NYC       0.119300
      3 O24         -2.4550     2.8720    -1.3320 oh         1 NYC      -0.624000
      4 C22         -2.6520     1.7240     0.8540 c3         1 NYC       0.115200
      5 N26         -2.0910     2.9230     1.5860 n8         1 NYC      -1.011200
      6 C14         -1.6540     0.5660     0.6440 cc         1 NYC       0.498900
      7 N13         -0.3270     0.7530     0.5250 nd         1 NYC      -0.662300
      8 C12          0.1410    -0.5490     0.3650 cd         1 NYC       0.004400
      9 C11          1.4820    -0.8320     0.2020 ce         1 NYC      -0.067000
     10 C7           2.6850    -0.0010     0.1480 cc         1 NYC      -0.107200
     11 C8           2.7730     1.3860     0.2530 cd         1 NYC      -0.109100
     12 N9           4.1240     1.7970     0.1500 na         1 NYC      -0.224700
     13 C6           4.8580     0.6410    -0.0190 ca         1 NYC      -0.063200
     14 C5           6.2470     0.5240    -0.1680 ca         1 NYC      -0.130000
     15 C4           6.7930    -0.7670    -0.3290 ca         1 NYC      -0.107000
     16 C3           5.9490    -1.9010    -0.3370 ca         1 NYC      -0.147000
     17 C2           4.5540    -1.7540    -0.1840 ca         1 NYC      -0.057000
     18 C1           4.0410    -0.4560    -0.0260 ca         1 NYC      -0.076800
     19 C16         -0.9300    -1.5620     0.3900 c          1 NYC       0.547200
     20 O17         -0.8760    -2.7810     0.2810 o          1 NYC      -0.512000
     21 N15         -2.0370    -0.7700     0.5760 n          1 NYC      -0.306300
     22 C18         -3.4180    -1.3300     0.6320 c3         1 NYC      -0.051000
     23 C           -3.8990    -1.9820    -0.6860 c          1 NYC       0.712000
     24 O           -3.7870    -1.3390    -1.7200 o          1 NYC      -0.714000
     25 OXT         -4.3700    -3.1090    -0.6380 o          1 NYC      -0.714000
     26 H251        -5.1170     3.1660    -1.2440 hc         1 NYC       0.034367
     27 H252        -5.3490     2.4170     0.3450 hc         1 NYC       0.034367
     28 H253        -4.4140     3.9220     0.2020 hc         1 NYC       0.034367
     29 H23         -3.6500     1.1940    -0.9970 h1         1 NYC       0.143700
     30 H24         -2.3830     3.7720    -0.9510 ho         1 NYC       0.410000
     31 H22         -3.4430     1.3300     1.5050 h1         1 NYC       0.079700
     32 H261        -1.2450     3.2350     1.0940 hn         1 NYC       0.401500
     33 H262        -2.7430     3.7120     1.5110 hn         1 NYC       0.401500
     34 H11          1.6840    -1.8970     0.0900 ha         1 NYC       0.186000
     35 H8           1.9690     2.1040     0.3930 h4         1 NYC       0.243000
     36 HN9          4.4790     2.7480     0.1920 hn         1 NYC       0.341000
     37 H5           6.8880     1.4030    -0.1610 ha         1 NYC       0.103000
     38 H4           7.8670    -0.8890    -0.4470 ha         1 NYC       0.099000
     39 H3           6.3760    -2.8940    -0.4610 ha         1 NYC       0.103000
     40 H2           3.9020    -2.6230    -0.1890 ha         1 NYC       0.120000
     41 H181        -3.4510    -2.0890     1.4240 h1         1 NYC       0.038700
     42 H182        -4.1410    -0.5500     0.8930 h1         1 NYC       0.038700
@<TRIPOS>BOND
     1     1     2 1   
     2     1    26 1   
     3     1    27 1   
     4     1    28 1   
     5     2     3 1   
     6     2     4 1   
     7     2    29 1   
     8     3    30 1   
     9     4     5 1   
    10     4     6 1   
    11     4    31 1   
    12     5    32 1   
    13     5    33 1   
    14     6     7 2   
    15     6    21 1   
    16     7     8 1   
    17     8     9 2   
    18     8    19 1   
    19     9    10 1   
    20     9    34 1   
    21    10    11 2   
    22    10    18 1   
    23    11    12 1   
    24    11    35 1   
    25    12    13 1   
    26    12    36 1   
    27    13    14 ar  
    28    13    18 ar  
    29    14    15 ar  
    30    14    37 1   
    31    15    16 ar  
    32    15    38 1   
    33    16    17 ar  
    34    16    39 1   
    35    17    18 ar  
    36    17    40 1   
    37    19    20 2   
    38    19    21 1   
    39    21    22 1   
    40    22    23 1   
    41    22    41 1   
    42    22    42 1   
    43    23    24 1   
    44    23    25 1   
@<TRIPOS>SUBSTRUCTURE
     1 NYC         1 TEMP              0 ****  ****    0 ROOT
