@<TRIPOS>MOLECULE
NYC
   42    44     1     0     0
SMALL
bcc


@<TRIPOS>ATOM
      1 C25         -4.3580     3.0000    -0.3820 c3         1 NYC      -0.126100
      2 C23         -3.2310     1.9880    -0.5160 c3         1 NYC       0.096100
      3 O24         -2.2470     2.4090    -1.4310 oh         1 NYC      -0.561800
      4 C22         -2.6080     1.6490     0.8660 c3         1 NYC       0.115200
      5 N26         -1.9190     2.7380     1.5260 n8         1 NYC      -0.900800
      6 C14         -1.6600     0.5040     0.7030 cc         1 NYC       0.498900
      7 N13         -0.3870     0.6550     0.5610 nd         1 NYC      -0.662300
      8 C12          0.1310    -0.6180     0.3690 cd         1 NYC       0.004400
      9 C11          1.4290    -0.9450     0.1850 ce         1 NYC      -0.017000
     10 C7           2.5540    -0.0660     0.1550 cc         1 NYC      -0.107200
     11 C8           2.5720     1.3100     0.3080 cd         1 NYC      -0.059100
     12 N9           3.8400     1.7620     0.2200 na         1 NYC      -0.174400
     13 C6           4.7010     0.7170     0.0080 ca         1 NYC      -0.063200
     14 C5           6.0850     0.7080    -0.1420 ca         1 NYC      -0.148000
     15 C4           6.6920    -0.5170    -0.3460 ca         1 NYC      -0.125000
     16 C3           5.9400    -1.7010    -0.3980 ca         1 NYC      -0.165000
     17 C2           4.5660    -1.6840    -0.2470 ca         1 NYC      -0.075000
     18 C1           3.9270    -0.4580    -0.0400 ca         1 NYC      -0.076800
     19 C16         -0.9710    -1.5940     0.4070 c          1 NYC       0.689700
     20 O17         -0.9700    -2.8060     0.2950 o          1 NYC      -0.587500
     21 N15         -2.0770    -0.8080     0.6460 n          1 NYC      -0.373300
     22 C18         -3.4090    -1.3470     0.7270 c3         1 NYC      -0.051000
     23 C           -4.0370    -1.6990    -0.6410 c          1 NYC       0.922600
     24 O           -3.4130    -1.3660    -1.6600 o          1 NYC      -0.819300
     25 OXT         -5.1330    -2.2820    -0.5620 o          1 NYC      -0.819300
     26 H251        -4.8090     3.1990    -1.3540 hc         1 NYC       0.034367
     27 H252        -5.1410     2.6270     0.2800 hc         1 NYC       0.034367
     28 H253        -4.0080     3.9530     0.0210 hc         1 NYC       0.034367
     29 H23         -3.6380     1.0670    -0.9390 h1         1 NYC       0.143700
     30 H24         -1.9160     3.2700    -1.1530 ho         1 NYC       0.371000
     31 H22         -3.4340     1.3370     1.5140 h1         1 NYC       0.079700
     32 H261        -1.0940     3.0100     1.0070 hn         1 NYC       0.346300
     33 H262        -2.5180     3.5480     1.6040 hn         1 NYC       0.346300
     34 H11          1.6350    -2.0020     0.0450 ha         1 NYC       0.136000
     35 H8           1.7480     1.9830     0.4730 h4         1 NYC       0.193000
     36 HN9          4.1060     2.7310     0.2990 hn         1 NYC       0.290700
     37 H5           6.6640     1.6210    -0.1010 ha         1 NYC       0.121000
     38 H4           7.7660    -0.5640    -0.4650 ha         1 NYC       0.117000
     39 H3           6.4480    -2.6430    -0.5620 ha         1 NYC       0.121000
     40 H2           4.0010    -2.6070    -0.2890 ha         1 NYC       0.138000
     41 H181        -3.3810    -2.2410     1.3530 h1         1 NYC       0.038700
     42 H182        -4.0510    -0.6360     1.2500 h1         1 NYC       0.038700
@<TRIPOS>BOND
     1     1     2 1   
     2     1    26 1   
     3     1    27 1   
     4     1    28 1   
     5     2     3 1   
     6     2     4 1   
     7     2    29 1   
     8     3    30 1   
     9     4     5 1   
    10     4     6 1   
    11     4    31 1   
    12     5    32 1   
    13     5    33 1   
    14     6     7 2   
    15     6    21 1   
    16     7     8 1   
    17     8     9 2   
    18     8    19 1   
    19     9    10 1   
    20     9    34 1   
    21    10    11 2   
    22    10    18 1   
    23    11    12 1   
    24    11    35 1   
    25    12    13 1   
    26    12    36 1   
    27    13    14 ar  
    28    13    18 ar  
    29    14    15 ar  
    30    14    37 1   
    31    15    16 ar  
    32    15    38 1   
    33    16    17 ar  
    34    16    39 1   
    35    17    18 ar  
    36    17    40 1   
    37    19    20 2   
    38    19    21 1   
    39    21    22 1   
    40    22    23 1   
    41    22    41 1   
    42    22    42 1   
    43    23    24 1   
    44    23    25 1   
@<TRIPOS>SUBSTRUCTURE
     1 NYC         1 TEMP              0 ****  ****    0 ROOT
