@<TRIPOS>MOLECULE
NYE
   22    23     1     0     0
SMALL
No Charge or Current Charge


@<TRIPOS>ATOM
      1 C2          18.7470     5.5600    -1.2480 ca         1 NYE      -0.167000
      2 C3          19.9240     5.0190    -1.7930 ca         1 NYE      -0.070000
      3 C4          20.8720     5.8640    -2.4040 ca         1 NYE      -0.094000
      4 C5          20.6360     7.2520    -2.4660 ca         1 NYE       0.018000
      5 C6          21.5820     8.0920    -3.0760 ca         1 NYE      -0.272000
      6 C7          22.7570     7.5590    -3.6210 ca         1 NYE       0.359000
      7 O           24.1830     4.4480    -4.6340 o          1 NYE      -0.721000
      8 O1          25.3200     6.1780    -4.0580 o          1 NYE      -0.721000
      9 C8          23.0100     6.1720    -3.5620 ca         1 NYE      -0.186600
     10 N           23.6300     8.4280    -4.2060 nv         1 NYE      -1.101000
     11 C           19.4550     7.7890    -1.9180 ca         1 NYE      -0.126000
     12 C9          22.0520     5.3300    -2.9510 ca         1 NYE      -0.060000
     13 C1          18.5120     6.9430    -1.3100 ca         1 NYE      -0.120000
     14 H2          18.0170     4.9050    -0.7770 ha         1 NYE       0.089000
     15 H3          20.0980     3.9460    -1.7410 ha         1 NYE       0.100000
     16 H4          21.3960     9.1610    -3.1260 ha         1 NYE       0.088000
     17 H8          23.5490     9.4160    -3.9800 hn         1 NYE       0.477000
     18 H7          24.5770     8.0710    -4.3470 hn         1 NYE       0.477000
     19 H           19.2680     8.8590    -1.9640 ha         1 NYE       0.092000
     20 H5          22.2300     4.2570    -2.8980 ha         1 NYE       0.130000
     21 H1          17.6000     7.3610    -0.8880 ha         1 NYE       0.085000
     22 C10         24.2640     5.5650    -4.1420 c          1 NYE       0.723600
@<TRIPOS>BOND
     1     1     2 ar  
     2     1    13 ar  
     3     1    14 1   
     4     2     3 ar  
     5     2    15 1   
     6     3     4 ar  
     7     3    12 ar  
     8     4     5 ar  
     9     4    11 ar  
    10     5     6 ar  
    11     5    16 1   
    12     6     9 ar  
    13     6    10 1   
    14     7    22 1   
    15     8    22 1   
    16     9    12 ar  
    17     9    22 1   
    18    10    17 1   
    19    10    18 1   
    20    11    13 ar  
    21    11    19 1   
    22    12    20 1   
    23    13    21 1   
@<TRIPOS>SUBSTRUCTURE
     1 NYE         1 TEMP              0 ****  ****    0 ROOT
