@<TRIPOS>MOLECULE
NYE
   22    23     1     0     0
SMALL
bcc


@<TRIPOS>ATOM
      1 C2          18.7470     5.5390    -1.2830 ca         1 NYE      -0.185000
      2 C3          19.8900     5.0240    -1.8320 ca         1 NYE      -0.088000
      3 C4          20.8550     5.8720    -2.4240 ca         1 NYE      -0.094000
      4 C5          20.6330     7.2730    -2.4500 ca         1 NYE       0.018000
      5 C6          21.5950     8.1050    -3.0460 ca         1 NYE      -0.290000
      6 C7          22.7590     7.6010    -3.6070 ca         1 NYE       0.220600
      7 O           24.2860     4.2930    -4.1670 o          1 NYE      -0.826300
      8 O1          25.2150     6.2940    -4.4240 o          1 NYE      -0.826300
      9 C8          22.9950     6.1830    -3.5690 ca         1 NYE      -0.186600
     10 N           23.6440     8.4350    -4.2320 nv         1 NYE      -0.852200
     11 C           19.4410     7.7780    -1.8720 ca         1 NYE      -0.144000
     12 C9          22.0460     5.3770    -2.9950 ca         1 NYE      -0.078000
     13 C1          18.5250     6.9330    -1.3060 ca         1 NYE      -0.138000
     14 H2          18.0120     4.8840    -0.8330 ha         1 NYE       0.107000
     15 H3          20.0720     3.9550    -1.8190 ha         1 NYE       0.118000
     16 H4          21.4170     9.1750    -3.0730 ha         1 NYE       0.106000
     17 H8          23.6110     9.4080    -3.9770 hn         1 NYE       0.421800
     18 H7          24.5590     8.0230    -4.3720 hn         1 NYE       0.421800
     19 H           19.2620     8.8470    -1.8850 ha         1 NYE       0.110000
     20 H5          22.2230     4.3080    -2.9710 ha         1 NYE       0.148000
     21 H1          17.6190     7.3360    -0.8690 ha         1 NYE       0.103000
     22 C10         24.2710     5.5330    -4.1040 c          1 NYE       0.934200
@<TRIPOS>BOND
     1     1     2 ar  
     2     1    13 ar  
     3     1    14 1   
     4     2     3 ar  
     5     2    15 1   
     6     3     4 ar  
     7     3    12 ar  
     8     4     5 ar  
     9     4    11 ar  
    10     5     6 ar  
    11     5    16 1   
    12     6     9 ar  
    13     6    10 1   
    14     7    22 1   
    15     8    22 1   
    16     9    12 ar  
    17     9    22 1   
    18    10    17 1   
    19    10    18 1   
    20    11    13 ar  
    21    11    19 1   
    22    12    20 1   
    23    13    21 1   
@<TRIPOS>SUBSTRUCTURE
     1 NYE         1 TEMP              0 ****  ****    0 ROOT
