@<TRIPOS>MOLECULE
NYF
   80    83     1     0     0
SMALL
abcg2


@<TRIPOS>ATOM
      1 C13        169.9850   -14.7600     9.2320 c3         1 NYF      -0.008100
      2 C11        173.7840   -10.9480     8.0290 c          1 NYF       0.593100
      3 C17        169.3150   -18.4630     8.6880 ca         1 NYF      -0.113500
      4 C16        170.0550   -18.7160     7.5410 ca         1 NYF      -0.110000
      5 C15        170.7460   -17.6780     6.9280 ca         1 NYF      -0.113500
      6 C14        169.9690   -16.1370     8.6220 ca         1 NYF      -0.093300
      7 C24        176.4930   -15.4370    12.5910 ca         1 NYF      -0.109500
      8 C23        176.1020   -14.1640    12.1970 ca         1 NYF      -0.111500
      9 C22        176.0490   -14.8820     9.9130 ca         1 NYF      -0.111500
     10 C25        176.6670   -16.4360    11.6440 ca         1 NYF      -0.109000
     11 C20        175.4570   -12.4930    10.4150 c3         1 NYF      -0.050100
     12 C19        170.7030   -16.4000     7.4670 ca         1 NYF      -0.101500
     13 C01        173.0670   -19.8330    12.1070 c3         1 NYF      -0.026100
     14 C02        172.5670   -18.6500    11.2760 c3         1 NYF      -0.098400
     15 C03        173.0500   -17.3110    11.8210 c3         1 NYF       0.098000
     16 C05        171.5300   -15.5410    11.0440 c          1 NYF       0.601100
     17 C06        171.3160   -14.5090     9.9460 c3         1 NYF      -0.012700
     18 C09        173.9860   -12.4370     9.9680 c3         1 NYF       0.116700
     19 C18        169.2750   -17.1820     9.2240 ca         1 NYF      -0.101500
     20 C21        175.8800   -13.8670    10.8550 ca         1 NYF      -0.086300
     21 C26        176.4390   -16.1560    10.3020 ca         1 NYF      -0.109500
     22 C28        174.5620   -19.9850    12.0780 ca         1 NYF      -0.128300
     23 C30        175.3320   -19.8360    13.2270 ca         1 NYF       0.332900
     24 C31        175.2430   -20.2760    10.9000 ca         1 NYF      -0.075000
     25 C32        176.6220   -20.4040    10.9220 ca         1 NYF      -0.164000
     26 C33        177.2840   -20.2390    12.1310 ca         1 NYF       0.326900
     27 C34        173.3700    -9.5520     7.5930 c3         1 NYF       0.019000
     28 C36        173.5320    -8.1960     5.5840 c          1 NYF       0.621700
     29 C37        174.0050    -8.1290     4.1690 ca         1 NYF      -0.204600
     30 C39        173.3850    -7.2470     3.2890 ca         1 NYF      -0.022000
     31 C40        173.8360    -7.1750     1.9840 ca         1 NYF      -0.174000
     32 C41        174.9060    -7.9750     1.6080 ca         1 NYF       0.353900
     33 C43        175.0800    -8.8730     3.6890 ca         1 NYF       0.361900
     34 N04        172.6910   -16.2050    10.9620 ns         1 NYF      -0.499900
     35 N10        173.6780   -11.1690     9.3440 ns         1 NYF      -0.492900
     36 N29        176.6540   -19.9590    13.2650 nb         1 NYF      -0.665000
     37 N35        173.7590    -9.3500     6.2260 ns         1 NYF      -0.495900
     38 N42        175.5240    -8.8020     2.4420 nb         1 NYF      -0.670000
     39 O12        170.6990   -15.7290    11.9210 o          1 NYF      -0.586100
     40 O27        174.1550   -11.7870     7.2210 o          1 NYF      -0.617100
     41 O38        172.9740    -7.2440     6.1090 o          1 NYF      -0.603100
     42 S07        171.3010   -12.8350    10.6580 ss         1 NYF      -0.383000
     43 H1         169.8590   -13.9990     8.4580 hc         1 NYF       0.071700
     44 H2         169.1590   -14.6450     9.9360 hc         1 NYF       0.071700
     45 H3         168.7700   -19.2650     9.1690 ha         1 NYF       0.113000
     46 H4         170.0890   -19.7140     7.1230 ha         1 NYF       0.112000
     47 H5         171.3200   -17.8640     6.0290 ha         1 NYF       0.113000
     48 H6         176.6650   -15.6470    13.6390 ha         1 NYF       0.117000
     49 H7         175.9720   -13.3870    12.9430 ha         1 NYF       0.115000
     50 H8         175.8860   -14.6690     8.8620 ha         1 NYF       0.115000
     51 H9         176.9760   -17.4280    11.9480 ha         1 NYF       0.121000
     52 H10        176.0750   -12.1740     9.5730 hc         1 NYF       0.059200
     53 H11        175.6170   -11.7690    11.2180 hc         1 NYF       0.059200
     54 H12        171.2450   -15.5950     6.9830 ha         1 NYF       0.119000
     55 H13        172.7300   -19.7250    13.1410 hc         1 NYF       0.054200
     56 H14        172.6040   -20.7470    11.7270 hc         1 NYF       0.054200
     57 H15        171.4750   -18.6630    11.2550 hc         1 NYF       0.051700
     58 H16        172.9000   -18.7610    10.2400 hc         1 NYF       0.051700
     59 H17        174.1360   -17.3070    11.9150 h1         1 NYF       0.060700
     60 H18        172.6440   -17.1370    12.8180 h1         1 NYF       0.060700
     61 H19        172.1170   -14.5610     9.2040 h1         1 NYF       0.071700
     62 H20        173.3500   -13.5560    11.6980 h1         1 NYF       0.085200
     63 H21        173.0860   -11.8310    11.8380 h1         1 NYF       0.085200
     64 H22        173.8290   -13.2150     9.2190 h1         1 NYF       0.078700
     65 H23        168.7010   -16.9940    10.1230 ha         1 NYF       0.119000
     66 H24        176.5720   -16.9310     9.5570 ha         1 NYF       0.117000
     67 H25        174.8440   -19.6050    14.1690 h4         1 NYF       0.019100
     68 H26        174.6990   -20.4060     9.9710 ha         1 NYF       0.119000
     69 H27        177.1780   -20.6310    10.0220 ha         1 NYF       0.124000
     70 H28        178.3630   -20.3350    12.1830 h4         1 NYF       0.020100
     71 H29        173.8290    -8.8060     8.2460 h1         1 NYF       0.070200
     72 H30        172.2860    -9.4570     7.7200 h1         1 NYF       0.070200
     73 H31        172.5570    -6.6350     3.6210 ha         1 NYF       0.140000
     74 H32        173.3730    -6.5120     1.2670 ha         1 NYF       0.129000
     75 H33        175.2830    -7.9420     0.5920 h4         1 NYF       0.022100
     76 H34        175.6270    -9.5430     4.3450 h4         1 NYF       0.023100
     77 H35        173.3030   -16.0140    10.1840 hn         1 NYF       0.314500
     78 H36        173.4330   -10.3960     9.9450 hn         1 NYF       0.321500
     79 H37        174.0960   -10.1650     5.7340 hn         1 NYF       0.345500
     80 C08        173.0410   -12.6720    11.1400 c3         1 NYF       0.027600
@<TRIPOS>BOND
     1     1     6 1   
     2     1    17 1   
     3     1    43 1   
     4     1    44 1   
     5     2    27 1   
     6     2    35 1   
     7     2    40 2   
     8     3     4 ar  
     9     3    19 ar  
    10     3    45 1   
    11     4     5 ar  
    12     4    46 1   
    13     5    12 ar  
    14     5    47 1   
    15     6    12 ar  
    16     6    19 ar  
    17     7     8 ar  
    18     7    10 ar  
    19     7    48 1   
    20     8    20 ar  
    21     8    49 1   
    22     9    20 ar  
    23     9    21 ar  
    24     9    50 1   
    25    10    21 ar  
    26    10    51 1   
    27    11    18 1   
    28    11    20 1   
    29    11    52 1   
    30    11    53 1   
    31    12    54 1   
    32    13    14 1   
    33    13    22 1   
    34    13    55 1   
    35    13    56 1   
    36    14    15 1   
    37    14    57 1   
    38    14    58 1   
    39    15    34 1   
    40    15    59 1   
    41    15    60 1   
    42    16    17 1   
    43    16    34 1   
    44    16    39 2   
    45    17    42 1   
    46    17    61 1   
    47    18    35 1   
    48    18    64 1   
    49    18    80 1   
    50    19    65 1   
    51    21    66 1   
    52    22    23 ar  
    53    22    24 ar  
    54    23    36 ar  
    55    23    67 1   
    56    24    25 ar  
    57    24    68 1   
    58    25    26 ar  
    59    25    69 1   
    60    26    36 ar  
    61    26    70 1   
    62    27    37 1   
    63    27    71 1   
    64    27    72 1   
    65    28    29 1   
    66    28    37 1   
    67    28    41 2   
    68    29    30 ar  
    69    29    33 ar  
    70    30    31 ar  
    71    30    73 1   
    72    31    32 ar  
    73    31    74 1   
    74    32    38 ar  
    75    32    75 1   
    76    33    38 ar  
    77    33    76 1   
    78    34    77 1   
    79    35    78 1   
    80    37    79 1   
    81    42    80 1   
    82    62    80 1   
    83    63    80 1   
@<TRIPOS>SUBSTRUCTURE
     1 NYF         1 TEMP              0 ****  ****    0 ROOT
