@<TRIPOS>MOLECULE
NYF
   80    83     1     0     0
SMALL
No Charge or Current Charge


@<TRIPOS>ATOM
      1 C13        169.9920   -14.3000     9.2590 c3         1 NYF      -0.008100
      2 C11        173.9320   -11.2580     8.6040 c          1 NYF       0.593100
      3 C17        169.7890   -17.9110     7.9730 ca         1 NYF      -0.113500
      4 C16        170.4140   -17.7980     6.7200 ca         1 NYF      -0.110000
      5 C15        170.8890   -16.5500     6.2840 ca         1 NYF      -0.113500
      6 C14        170.1130   -15.5220     8.3570 ca         1 NYF      -0.093300
      7 C24        175.6550   -15.1820    14.1970 ca         1 NYF      -0.109500
      8 C23        175.3740   -13.9370    13.6080 ca         1 NYF      -0.111500
      9 C22        176.3120   -14.7210    11.5060 ca         1 NYF      -0.111500
     10 C25        176.2700   -16.1960    13.4430 ca         1 NYF      -0.109000
     11 C20        175.3920   -12.3540    11.6100 c3         1 NYF      -0.050100
     12 C19        170.7410   -15.4150     7.1010 ca         1 NYF      -0.101500
     13 C01        173.3420   -19.5620    11.3450 c3         1 NYF      -0.026100
     14 C02        172.7520   -18.3120    10.6530 c3         1 NYF      -0.098400
     15 C03        173.5140   -17.0150    10.9940 c3         1 NYF       0.098000
     16 C05        171.7810   -15.2000    10.8300 c          1 NYF       0.601100
     17 C06        171.3260   -13.9950     9.9720 c3         1 NYF      -0.012700
     18 C09        174.0310   -12.3470    10.8770 c3         1 NYF       0.116700
     19 C18        169.6390   -16.7770     8.7890 ca         1 NYF      -0.101500
     20 C21        175.6990   -13.7000    12.2580 ca         1 NYF      -0.086300
     21 C26        176.6020   -15.9630    12.0980 ca         1 NYF      -0.109500
     22 C28        174.8190   -19.7810    11.0310 ca         1 NYF      -0.128300
     23 C30        175.7910   -19.7170    12.0520 ca         1 NYF       0.332900
     24 C31        175.2450   -20.0450     9.7160 ca         1 NYF      -0.075000
     25 C32        176.6180   -20.2270     9.4850 ca         1 NYF      -0.164000
     26 C33        177.5140   -20.1440    10.5640 ca         1 NYF       0.326900
     27 C34        173.7610    -9.9000     7.8870 c3         1 NYF       0.019000
     28 C36        173.6170    -9.0130     5.5220 c          1 NYF       0.621700
     29 C37        173.6410    -9.3530     4.0570 ca         1 NYF      -0.204600
     30 C39        173.4980    -8.3370     3.0880 ca         1 NYF      -0.022000
     31 C40        173.5250    -8.6940     1.7310 ca         1 NYF      -0.174000
     32 C41        173.6930   -10.0420     1.3810 ca         1 NYF       0.353900
     33 C43        173.8050   -10.6780     3.6080 ca         1 NYF       0.361900
     34 N04        172.9090   -15.8430    10.3650 ns         1 NYF      -0.499900
     35 N10        173.9310   -11.1890     9.9800 ns         1 NYF      -0.492900
     36 N29        177.1150   -19.8940    11.8320 nb         1 NYF      -0.665000
     37 N35        173.7640   -10.0520     6.4140 ns         1 NYF      -0.495900
     38 N42        173.8320   -11.0230     2.3000 nb         1 NYF      -0.670000
     39 O12        171.2100   -15.5470    11.8560 o          1 NYF      -0.586100
     40 O27        174.0580   -12.3170     8.0000 o          1 NYF      -0.617100
     41 O38        173.4730    -7.8640     5.9150 o          1 NYF      -0.603100
     42 S07        171.1860   -12.4210    10.9640 ss         1 NYF      -0.383000
     43 H1         169.6950   -13.4260     8.6660 hc         1 NYF       0.071700
     44 H2         169.2040   -14.4450    10.0080 hc         1 NYF       0.071700
     45 H3         169.4240   -18.8780     8.3140 ha         1 NYF       0.113000
     46 H4         170.5320   -18.6760     6.0890 ha         1 NYF       0.112000
     47 H5         171.3760   -16.4620     5.3150 ha         1 NYF       0.113000
     48 H6         175.4000   -15.3600    15.2400 ha         1 NYF       0.117000
     49 H7         174.9030   -13.1570    14.2030 ha         1 NYF       0.115000
     50 H8         176.5680   -14.5530    10.4620 ha         1 NYF       0.115000
     51 H9         176.4920   -17.1570    13.9000 ha         1 NYF       0.121000
     52 H10        176.1820   -12.1160    10.8870 hc         1 NYF       0.059200
     53 H11        175.4130   -11.5490    12.3550 hc         1 NYF       0.059200
     54 H12        171.1190   -14.4540     6.7590 ha         1 NYF       0.119000
     55 H13        173.1920   -19.4680    12.4280 hc         1 NYF       0.054200
     56 H14        172.7640   -20.4420    11.0350 hc         1 NYF       0.054200
     57 H15        171.7020   -18.2080    10.9520 hc         1 NYF       0.051700
     58 H16        172.7570   -18.4570     9.5660 hc         1 NYF       0.051700
     59 H17        174.5500   -17.0970    10.6410 h1         1 NYF       0.060700
     60 H18        173.5370   -16.8680    12.0820 h1         1 NYF       0.060700
     61 H19        172.0870   -13.8290     9.2010 h1         1 NYF       0.071700
     62 H20        172.8980   -13.2930    12.4810 h1         1 NYF       0.085200
     63 H21        172.8520   -11.5230    12.5080 h1         1 NYF       0.085200
     64 H22        174.0060   -13.2570    10.2660 h1         1 NYF       0.078700
     65 H23        169.1620   -16.8770     9.7620 ha         1 NYF       0.119000
     66 H24        177.0790   -16.7470    11.5130 ha         1 NYF       0.117000
     67 H25        175.5010   -19.5130    13.0830 h4         1 NYF       0.019100
     68 H26        174.5330   -20.1070     8.8960 ha         1 NYF       0.119000
     69 H27        176.9900   -20.4320     8.4850 ha         1 NYF       0.124000
     70 H28        178.5840   -20.2820    10.4100 h4         1 NYF       0.020100
     71 H29        174.5840    -9.2410     8.1930 h1         1 NYF       0.070200
     72 H30        172.8120    -9.4550     8.2110 h1         1 NYF       0.070200
     73 H31        173.3680    -7.2950     3.3760 ha         1 NYF       0.140000
     74 H32        173.4180    -7.9410     0.9560 ha         1 NYF       0.129000
     75 H33        173.7180   -10.3460     0.3350 h4         1 NYF       0.022100
     76 H34        173.9200   -11.5060     4.3060 h4         1 NYF       0.023100
     77 H35        173.3110   -15.5000     9.5010 hn         1 NYF       0.314500
     78 H36        173.8130   -10.2700    10.3910 hn         1 NYF       0.321500
     79 H37        173.8820   -10.9850     6.0360 hn         1 NYF       0.345500
     80 C08        172.8250   -12.4000    11.8480 c3         1 NYF       0.027600
@<TRIPOS>BOND
     1     1     6 1   
     2     1    17 1   
     3     1    43 1   
     4     1    44 1   
     5     2    27 1   
     6     2    35 1   
     7     2    40 2   
     8     3     4 ar  
     9     3    19 ar  
    10     3    45 1   
    11     4     5 ar  
    12     4    46 1   
    13     5    12 ar  
    14     5    47 1   
    15     6    12 ar  
    16     6    19 ar  
    17     7     8 ar  
    18     7    10 ar  
    19     7    48 1   
    20     8    20 ar  
    21     8    49 1   
    22     9    20 ar  
    23     9    21 ar  
    24     9    50 1   
    25    10    21 ar  
    26    10    51 1   
    27    11    18 1   
    28    11    20 1   
    29    11    52 1   
    30    11    53 1   
    31    12    54 1   
    32    13    14 1   
    33    13    22 1   
    34    13    55 1   
    35    13    56 1   
    36    14    15 1   
    37    14    57 1   
    38    14    58 1   
    39    15    34 1   
    40    15    59 1   
    41    15    60 1   
    42    16    17 1   
    43    16    34 1   
    44    16    39 2   
    45    17    42 1   
    46    17    61 1   
    47    18    35 1   
    48    18    64 1   
    49    18    80 1   
    50    19    65 1   
    51    21    66 1   
    52    22    23 ar  
    53    22    24 ar  
    54    23    36 ar  
    55    23    67 1   
    56    24    25 ar  
    57    24    68 1   
    58    25    26 ar  
    59    25    69 1   
    60    26    36 ar  
    61    26    70 1   
    62    27    37 1   
    63    27    71 1   
    64    27    72 1   
    65    28    29 1   
    66    28    37 1   
    67    28    41 2   
    68    29    30 ar  
    69    29    33 ar  
    70    30    31 ar  
    71    30    73 1   
    72    31    32 ar  
    73    31    74 1   
    74    32    38 ar  
    75    32    75 1   
    76    33    38 ar  
    77    33    76 1   
    78    34    77 1   
    79    35    78 1   
    80    37    79 1   
    81    42    80 1   
    82    62    80 1   
    83    63    80 1   
@<TRIPOS>SUBSTRUCTURE
     1 NYF         1 TEMP              0 ****  ****    0 ROOT
