@<TRIPOS>MOLECULE
NYG
   39    40     1     0     0
SMALL
abcg2


@<TRIPOS>ATOM
      1 OD1          5.4050    -0.3070    -3.5880 o          1 NYG      -0.571100
      2 CG1          5.7340    -0.2240    -2.4140 c          1 NYG       0.619100
      3 ND1          6.0500    -1.2950    -1.6670 nt         1 NYG      -0.616000
      4 CB1          5.8890     1.1120    -1.7230 c3         1 NYG      -0.179400
      5 CA1          4.8580     2.1550    -2.1540 c3         1 NYG       0.139200
      6 N            5.0870     3.4720    -1.5820 n8         1 NYG      -0.984200
      7 C1           3.4720     1.7070    -1.8070 cc         1 NYG       0.526900
      8 N3           2.3560     2.4450    -2.1320 n          1 NYG      -0.280300
      9 CA3          2.2880     3.5500    -3.0520 c3         1 NYG      -0.063000
     10 C            2.3000     3.1080    -4.5330 c          1 NYG       0.706000
     11 O            2.4240     1.8950    -4.7620 o          1 NYG      -0.716000
     12 N2           3.2170     0.6240    -1.1570 nd         1 NYG      -0.693300
     13 CA2          1.8360     0.5560    -1.0440 cd         1 NYG       0.046400
     14 C2           1.2520     1.7390    -1.7160 c          1 NYG       0.536200
     15 O2           0.0900     2.0560    -1.8850 o          1 NYG      -0.515000
     16 CB2          1.0950    -0.3970    -0.4470 ce         1 NYG      -0.117200
     17 CG2          1.5250    -1.6050     0.2240 ca         1 NYG      -0.062800
     18 CD2          0.5520    -2.4140     0.8230 ca         1 NYG      -0.056500
     19 CE2          0.8820    -3.5850     1.4780 ca         1 NYG      -0.189000
     20 CZ           2.2150    -3.9870     1.5470 ca         1 NYG       0.126100
     21 OH           2.6020    -5.1130     2.1650 oh         1 NYG      -0.542100
     22 CE1          3.2020    -3.1970     0.9520 ca         1 NYG      -0.189000
     23 CD1          2.8620    -2.0280     0.3030 ca         1 NYG      -0.056500
     24 OXT          2.1920     4.0410    -5.3510 o          1 NYG      -0.716000
     25 HD11         6.2680    -1.2130    -0.6900 hn         1 NYG       0.304000
     26 HD12         5.9900    -2.2230    -2.0530 hn         1 NYG       0.304000
     27 HB11         6.8790     1.4990    -1.9860 hc         1 NYG       0.046200
     28 HB12         5.8750     1.0000    -0.6370 hc         1 NYG       0.046200
     29 HA1          4.8970     2.2560    -3.2420 h1         1 NYG       0.134700
     30 HN1          5.9330     3.8670    -1.9720 hn         1 NYG       0.392000
     31 HN2          5.2390     3.3940    -0.5830 hn         1 NYG       0.392000
     32 HA31         3.1230     4.2220    -2.8530 h1         1 NYG       0.056200
     33 HA32         1.3750     4.1100    -2.8450 h1         1 NYG       0.056200
     34 HB2          0.0210    -0.2350    -0.4720 ha         1 NYG       0.184000
     35 HD2         -0.4890    -2.1170     0.7750 ha         1 NYG       0.131000
     36 HE2          0.1040    -4.1880     1.9320 ha         1 NYG       0.108500
     37 HOH          1.8410    -5.5790     2.5290 ho         1 NYG       0.457000
     38 HE1          4.2370    -3.5110     1.0010 ha         1 NYG       0.108500
     39 HD1          3.6380    -1.4320    -0.1560 ha         1 NYG       0.131000
@<TRIPOS>BOND
     1     1     2 2   
     2     2     3 1   
     3     2     4 1   
     4     3    25 1   
     5     3    26 1   
     6     4     5 1   
     7     4    27 1   
     8     4    28 1   
     9     5     6 1   
    10     5     7 1   
    11     5    29 1   
    12     6    30 1   
    13     6    31 1   
    14     7     8 1   
    15     7    12 2   
    16     8     9 1   
    17     8    14 1   
    18     9    10 1   
    19     9    32 1   
    20     9    33 1   
    21    10    11 1   
    22    10    24 1   
    23    12    13 1   
    24    13    14 1   
    25    13    16 2   
    26    14    15 2   
    27    16    17 1   
    28    16    34 1   
    29    17    18 ar  
    30    17    23 ar  
    31    18    19 ar  
    32    18    35 1   
    33    19    20 ar  
    34    19    36 1   
    35    20    21 1   
    36    20    22 ar  
    37    21    37 1   
    38    22    23 ar  
    39    22    38 1   
    40    23    39 1   
@<TRIPOS>SUBSTRUCTURE
     1 NYG         1 TEMP              0 ****  ****    0 ROOT
