@<TRIPOS>MOLECULE
NYG
   39    40     1     0     0
SMALL
No Charge or Current Charge


@<TRIPOS>ATOM
      1 OD1          6.5680     0.7360    -4.1550 o          1 NYG      -0.571100
      2 CG1          6.0420     0.3680    -3.1190 c          1 NYG       0.619100
      3 ND1          5.3940    -0.8140    -3.0610 nt         1 NYG      -0.616000
      4 CB1          6.0780     1.1890    -1.8280 c3         1 NYG      -0.179400
      5 CA1          4.9080     2.2050    -1.7710 c3         1 NYG       0.139200
      6 N            5.1590     3.1320    -0.6170 n8         1 NYG      -0.984200
      7 C1           3.5040     1.5540    -1.7530 cc         1 NYG       0.526900
      8 N3           2.3870     2.1380    -2.3350 n          1 NYG      -0.280300
      9 CA3          2.3290     3.4260    -3.0800 c3         1 NYG      -0.063000
     10 C            2.5690     3.2870    -4.5960 c          1 NYG       0.706000
     11 O            3.5860     2.7190    -4.9660 o          1 NYG      -0.716000
     12 N2           3.2390     0.4040    -1.1080 nd         1 NYG      -0.693300
     13 CA2          1.8750     0.2450    -1.3380 cd         1 NYG       0.046400
     14 C2           1.2840     1.3510    -2.1180 c          1 NYG       0.536200
     15 O2           0.1290     1.5450    -2.4800 o          1 NYG      -0.515000
     16 CB2          1.1520    -0.8090    -0.8130 ce         1 NYG      -0.117200
     17 CG2          1.5220    -1.8410     0.2040 ca         1 NYG      -0.062800
     18 CD2          0.5350    -2.3070     1.0960 ca         1 NYG      -0.056500
     19 CE2          0.8450    -3.2870     2.0580 ca         1 NYG      -0.189000
     20 CZ           2.1430    -3.8130     2.1290 ca         1 NYG       0.126100
     21 OH           2.4490    -4.7620     3.0560 oh         1 NYG      -0.542100
     22 CE1          3.1290    -3.3660     1.2400 ca         1 NYG      -0.189000
     23 CD1          2.8220    -2.3860     0.2780 ca         1 NYG      -0.056500
     24 OXT          1.7190     3.7200    -5.3600 o          1 NYG      -0.716000
     25 HD11         4.9190    -1.0800    -2.2100 hn         1 NYG       0.304000
     26 HD12         5.3390    -1.3910    -3.8870 hn         1 NYG       0.304000
     27 HB11         7.0300     1.7330    -1.7880 hc         1 NYG       0.046200
     28 HB12         5.9860     0.5200    -0.9630 hc         1 NYG       0.046200
     29 HA1          4.9660     2.7980    -2.6960 h1         1 NYG       0.134700
     30 HN1          6.1340     3.4520    -0.6420 hn         1 NYG       0.392000
     31 HN2          5.1020     2.5960     0.2590 hn         1 NYG       0.392000
     32 HA31         3.0770     4.1190    -2.6800 h1         1 NYG       0.056200
     33 HA32         1.3440     3.8840    -2.9270 h1         1 NYG       0.056200
     34 HB2          0.0880    -0.7780    -1.0510 ha         1 NYG       0.184000
     35 HD2         -0.4750    -1.9060     1.0490 ha         1 NYG       0.131000
     36 HE2          0.0720    -3.6300     2.7410 ha         1 NYG       0.108500
     37 HOH          1.6430    -4.9490     3.5840 ho         1 NYG       0.457000
     38 HE1          4.1330    -3.7790     1.2890 ha         1 NYG       0.108500
     39 HD1          3.5940    -2.0650    -0.4140 ha         1 NYG       0.131000
@<TRIPOS>BOND
     1     1     2 2   
     2     2     3 1   
     3     2     4 1   
     4     3    25 1   
     5     3    26 1   
     6     4     5 1   
     7     4    27 1   
     8     4    28 1   
     9     5     6 1   
    10     5     7 1   
    11     5    29 1   
    12     6    30 1   
    13     6    31 1   
    14     7     8 1   
    15     7    12 2   
    16     8     9 1   
    17     8    14 1   
    18     9    10 1   
    19     9    32 1   
    20     9    33 1   
    21    10    11 1   
    22    10    24 1   
    23    12    13 1   
    24    13    14 1   
    25    13    16 2   
    26    14    15 2   
    27    16    17 1   
    28    16    34 1   
    29    17    18 ar  
    30    17    23 ar  
    31    18    19 ar  
    32    18    35 1   
    33    19    20 ar  
    34    19    36 1   
    35    20    21 1   
    36    20    22 ar  
    37    21    37 1   
    38    22    23 ar  
    39    22    38 1   
    40    23    39 1   
@<TRIPOS>SUBSTRUCTURE
     1 NYG         1 TEMP              0 ****  ****    0 ROOT
