@<TRIPOS>MOLECULE
NYH
   18    18     1     0     0
SMALL
No Charge or Current Charge


@<TRIPOS>ATOM
      1 C1A         -0.3180     0.0440     0.0120 c2         1 NYH      -0.188300
      2 N1A         -1.7920    -0.0510     0.0510 no         1 NYH       0.662100
      3 O1N         -2.4470     0.9390    -0.3020 o          1 NYH      -0.405000
      4 O2N         -2.3050    -1.1010     0.4600 o          1 NYH      -0.405000
      5 C2A          0.3390     1.2260    -0.0380 c2         1 NYH      -0.116200
      6 C3A          1.8570     1.3620    -0.0690 c6         1 NYH      -0.057200
      7 C4A          2.5760     0.0560     0.3380 c6         1 NYH      -0.078400
      8 C5A          1.9300    -1.1540    -0.3660 c6         1 NYH      -0.076400
      9 C6A          0.4420    -1.2940     0.0370 c6         1 NYH      -0.027200
     10 H2A         -0.2120     2.1710    -0.0530 ha         1 NYH       0.211000
     11 H3A          2.1680     1.6580    -1.0810 hc         1 NYH       0.065700
     12 H3AA         2.1710     2.1750     0.6000 hc         1 NYH       0.065700
     13 H4A          3.6440     0.1200     0.0870 hc         1 NYH       0.050700
     14 H4AA         2.5160    -0.0770     1.4280 hc         1 NYH       0.050700
     15 H5A          2.0080    -1.0300    -1.4550 hc         1 NYH       0.050200
     16 H5AA         2.4740    -2.0760    -0.1160 hc         1 NYH       0.050200
     17 H6A          0.3760    -1.7250     1.0460 hc         1 NYH       0.072200
     18 H6AA        -0.0380    -2.0160    -0.6380 hc         1 NYH       0.072200
@<TRIPOS>BOND
     1     1     2 1   
     2     1     5 2   
     3     1     9 1   
     4     2     3 1   
     5     2     4 1   
     6     5     6 1   
     7     5    10 1   
     8     6     7 1   
     9     6    11 1   
    10     6    12 1   
    11     7     8 1   
    12     7    13 1   
    13     7    14 1   
    14     8     9 1   
    15     8    15 1   
    16     8    16 1   
    17     9    17 1   
    18     9    18 1   
@<TRIPOS>SUBSTRUCTURE
     1 NYH         1 TEMP              0 ****  ****    0 ROOT
