@<TRIPOS>MOLECULE
NYH
   18    18     1     0     0
SMALL
bcc


@<TRIPOS>ATOM
      1 C1A         -0.2570     0.0130    -0.0010 c2         1 NYH      -0.188300
      2 N1A         -1.7100    -0.0170     0.0560 no         1 NYH       0.282100
      3 O1N         -2.3400     1.0040    -0.1140 o          1 NYH      -0.215000
      4 O2N         -2.2280    -1.0880     0.2830 o          1 NYH      -0.215000
      5 C2A          0.3480     1.1990    -0.0730 c2         1 NYH      -0.066200
      6 C3A          1.8310     1.3400    -0.0680 c6         1 NYH      -0.057200
      7 C4A          2.5440     0.0560     0.3340 c6         1 NYH      -0.078400
      8 C5A          1.9080    -1.1440    -0.3520 c6         1 NYH      -0.076400
      9 C6A          0.4460    -1.3060     0.0570 c6         1 NYH      -0.027200
     10 H2A         -0.2380     2.1080    -0.1310 ha         1 NYH       0.161000
     11 H3A          2.1400     1.6610    -1.0700 hc         1 NYH       0.065700
     12 H3AA         2.1000     2.1670     0.5940 hc         1 NYH       0.065700
     13 H4A          3.6030     0.1270     0.0840 hc         1 NYH       0.050700
     14 H4AA         2.4830    -0.0700     1.4190 hc         1 NYH       0.050700
     15 H5A          1.9710    -1.0190    -1.4370 hc         1 NYH       0.050200
     16 H5AA         2.4500    -2.0580    -0.1080 hc         1 NYH       0.050200
     17 H6A          0.3820    -1.7190     1.0680 hc         1 NYH       0.072200
     18 H6AA        -0.0420    -2.0280    -0.6010 hc         1 NYH       0.072200
@<TRIPOS>BOND
     1     1     2 1   
     2     1     5 2   
     3     1     9 1   
     4     2     3 1   
     5     2     4 1   
     6     5     6 1   
     7     5    10 1   
     8     6     7 1   
     9     6    11 1   
    10     6    12 1   
    11     7     8 1   
    12     7    13 1   
    13     7    14 1   
    14     8     9 1   
    15     8    15 1   
    16     8    16 1   
    17     9    17 1   
    18     9    18 1   
@<TRIPOS>SUBSTRUCTURE
     1 NYH         1 TEMP              0 ****  ****    0 ROOT
