@<TRIPOS>MOLECULE
NYI
   25    26     1     0     0
SMALL
bcc


@<TRIPOS>ATOM
      1 N3         -32.1580    -5.9690    28.0610 ns         1 NYI      -0.471100
      2 C4         -31.5420    -5.1990    29.0440 ca         1 NYI       0.050600
      3 C5         -31.3740    -5.6710    30.3390 ca         1 NYI      -0.156000
      4 C6         -30.7470    -4.8760    31.2860 ca         1 NYI      -0.108000
      5 C7         -30.2590    -3.6240    30.9370 ca         1 NYI      -0.137000
      6 C8         -30.4120    -3.1570    29.6400 ca         1 NYI      -0.118000
      7 C15        -32.3480    -0.0660    27.8090 c2         1 NYI      -0.133000
      8 C14        -32.2440    -1.3730    28.0240 ce         1 NYI      -0.244200
      9 O13        -31.6870    -1.9520    25.7980 o          1 NYI      -0.577100
     10 N10        -31.3040    -3.5240    27.3710 n          1 NYI      -0.390000
     11 C11        -31.1090    -4.5740    26.3920 c6         1 NYI       0.012000
     12 C2         -31.9610    -5.7820    26.7300 c          1 NYI       0.696500
     13 C9         -31.0900    -3.9230    28.7010 ca         1 NYI       0.018600
     14 O1         -32.4030    -6.5310    25.8850 o          1 NYI      -0.600500
     15 H1         -32.6470    -6.8080    28.3430 hn         1 NYI       0.327500
     16 H17        -31.7350    -6.6580    30.6010 ha         1 NYI       0.139000
     17 H18        -30.6250    -5.2460    32.2950 ha         1 NYI       0.138000
     18 H19        -29.7430    -3.0150    31.6670 ha         1 NYI       0.139000
     19 H20        -30.0080    -2.1930    29.3580 ha         1 NYI       0.145000
     20 H25        -32.0140     0.3950    26.8890 ha         1 NYI       0.127000
     21 H24        -32.7660     0.5880    28.5620 ha         1 NYI       0.127000
     22 H23        -32.5790    -1.7990    28.9610 ha         1 NYI       0.144000
     23 H21        -30.0580    -4.8850    26.3570 h1         1 NYI       0.094200
     24 H22        -31.3790    -4.2130    25.4040 h1         1 NYI       0.094200
     25 C12        -31.7160    -2.2780    26.9720 c          1 NYI       0.684300
@<TRIPOS>BOND
     1     1     2 1   
     2     1    12 1   
     3     1    15 1   
     4     2     3 ar  
     5     2    13 ar  
     6     3     4 ar  
     7     3    16 1   
     8     4     5 ar  
     9     4    17 1   
    10     5     6 ar  
    11     5    18 1   
    12     6    13 ar  
    13     6    19 1   
    14     7     8 2   
    15     7    20 1   
    16     7    21 1   
    17     8    22 1   
    18     8    25 1   
    19     9    25 2   
    20    10    11 1   
    21    10    13 1   
    22    10    25 1   
    23    11    12 1   
    24    11    23 1   
    25    11    24 1   
    26    12    14 2   
@<TRIPOS>SUBSTRUCTURE
     1 NYI         1 TEMP              0 ****  ****    0 ROOT
