@<TRIPOS>MOLECULE
NYI
   25    26     1     0     0
SMALL
No Charge or Current Charge


@<TRIPOS>ATOM
      1 N3         -31.9100    -6.1790    28.0590 ns         1 NYI      -0.145000
      2 C4         -31.4500    -5.2900    29.0490 ca         1 NYI      -0.042000
      3 C5         -31.3360    -5.7190    30.3820 ca         1 NYI      -0.138000
      4 C6         -30.8250    -4.8490    31.3570 ca         1 NYI      -0.090000
      5 C7         -30.4280    -3.5520    30.9950 ca         1 NYI      -0.119000
      6 C8         -30.5510    -3.1210    29.6620 ca         1 NYI      -0.100000
      7 C15        -32.1250     0.0850    27.8900 c2         1 NYI      -0.233000
      8 C14        -32.2060    -1.2650    27.9920 ce         1 NYI      -0.294200
      9 O13        -31.6510    -1.8560    25.7760 o          1 NYI      -0.577100
     10 N10        -31.3560    -3.5450    27.3180 n          1 NYI      -0.230400
     11 C11        -31.3340    -4.5990    26.2540 c6         1 NYI       0.012000
     12 C2         -31.8500    -5.9810    26.6970 c          1 NYI       0.554000
     13 C9         -31.0450    -3.9930    28.6650 ca         1 NYI      -0.074000
     14 O1         -32.2110    -6.8350    25.8960 o          1 NYI      -0.525000
     15 H1         -32.2550    -7.0760    28.3750 hn         1 NYI       0.161000
     16 H17        -31.6350    -6.7270    30.6620 ha         1 NYI       0.121000
     17 H18        -30.7320    -5.1790    32.3900 ha         1 NYI       0.120000
     18 H19        -30.0310    -2.8760    31.7490 ha         1 NYI       0.121000
     19 H20        -30.2300    -2.1140    29.4090 ha         1 NYI       0.127000
     20 H25        -31.7250     0.5760    27.0000 ha         1 NYI       0.177000
     21 H24        -32.4580     0.7430    28.6950 ha         1 NYI       0.177000
     22 H23        -32.5820    -1.7180    28.9070 ha         1 NYI       0.194000
     23 H21        -30.3010    -4.7410    25.9110 h1         1 NYI       0.094200
     24 H22        -31.9490    -4.3010    25.3940 h1         1 NYI       0.094200
     25 C12        -31.7300    -2.2230    26.9430 c          1 NYI       0.617300
@<TRIPOS>BOND
     1     1     2 1   
     2     1    12 1   
     3     1    15 1   
     4     2     3 ar  
     5     2    13 ar  
     6     3     4 ar  
     7     3    16 1   
     8     4     5 ar  
     9     4    17 1   
    10     5     6 ar  
    11     5    18 1   
    12     6    13 ar  
    13     6    19 1   
    14     7     8 2   
    15     7    20 1   
    16     7    21 1   
    17     8    22 1   
    18     8    25 1   
    19     9    25 2   
    20    10    11 1   
    21    10    13 1   
    22    10    25 1   
    23    11    12 1   
    24    11    23 1   
    25    11    24 1   
    26    12    14 2   
@<TRIPOS>SUBSTRUCTURE
     1 NYI         1 TEMP              0 ****  ****    0 ROOT
