@<TRIPOS>MOLECULE
NYJ
   34    36     1     0     0
SMALL
No Charge or Current Charge


@<TRIPOS>ATOM
      1 CAI         -0.3300     2.1890     0.7820 c3         1 NYJ      -0.034900
      2 CAH          0.1430     0.8380     0.2740 cc         1 NYJ      -0.129400
      3 CAG          1.5960     0.5160     0.1230 ca         1 NYJ       0.029200
      4 CAB          2.6010     1.5070    -0.1370 ca         1 NYJ      -0.085300
      5 CAA          2.2990     2.9620    -0.4950 c3         1 NYJ      -0.043800
      6 CAC          3.9640     1.1450    -0.1450 ca         1 NYJ      -0.085000
      7 CAD          4.3600    -0.1800     0.0540 ca         1 NYJ      -0.129000
      8 CAE          3.3910    -1.1720     0.2150 ca         1 NYJ      -0.051000
      9 CAF          2.0220    -0.8340     0.2280 ca         1 NYJ      -0.168600
     10 CAL          1.0110    -1.9300     0.2700 c          1 NYJ       0.568600
     11 OAM          1.2980    -3.1150     0.3540 o          1 NYJ      -0.562000
     12 NAK         -0.2830    -1.5310     0.1570 ns         1 NYJ      -0.379100
     13 CAJ         -0.7530    -0.2350     0.1790 cd         1 NYJ       0.104400
     14 CAN         -2.2300    -0.1020     0.0360 ca         1 NYJ      -0.079800
     15 CAO         -2.8150     1.0120    -0.6120 ca         1 NYJ      -0.088500
     16 CAP         -4.2090     1.1150    -0.7600 ca         1 NYJ      -0.112000
     17 CAQ         -5.0470     0.1020    -0.2710 ca         1 NYJ      -0.096000
     18 CAR         -4.4860    -1.0200     0.3560 ca         1 NYJ      -0.112000
     19 CAS         -3.0910    -1.1260     0.5020 ca         1 NYJ      -0.088500
     20 HAI1        -0.4830     2.9100    -0.0280 hc         1 NYJ       0.042367
     21 HAI2        -1.2740     2.1030     1.3340 hc         1 NYJ       0.042367
     22 HAI3         0.3850     2.6090     1.4980 hc         1 NYJ       0.042367
     23 HAA1         2.1000     3.5700     0.3950 hc         1 NYJ       0.042033
     24 HAA2         3.1450     3.4320    -1.0110 hc         1 NYJ       0.042033
     25 HAA3         1.4500     3.0390    -1.1830 hc         1 NYJ       0.042033
     26 HAC          4.7290     1.8980    -0.3230 ha         1 NYJ       0.110000
     27 HAD          5.4150    -0.4440     0.0390 ha         1 NYJ       0.119000
     28 HAE          3.7060    -2.2090     0.3090 ha         1 NYJ       0.138000
     29 HAK         -0.9410    -2.2940     0.0930 hn         1 NYJ       0.329500
     30 HAO         -2.1940     1.7900    -1.0460 ha         1 NYJ       0.121500
     31 HAS         -2.6930    -2.0000     1.0110 ha         1 NYJ       0.121500
     32 HAP         -4.6390     1.9780    -1.2640 ha         1 NYJ       0.118000
     33 HAQ         -6.1260     0.1820    -0.3850 ha         1 NYJ       0.117000
     34 HAR         -5.1320    -1.8090     0.7340 ha         1 NYJ       0.118000
@<TRIPOS>BOND
     1     1     2 1   
     2     1    20 1   
     3     1    21 1   
     4     1    22 1   
     5     2     3 1   
     6     2    13 2   
     7     3     4 ar  
     8     3     9 ar  
     9     4     5 1   
    10     4     6 ar  
    11     5    23 1   
    12     5    24 1   
    13     5    25 1   
    14     6     7 ar  
    15     6    26 1   
    16     7     8 ar  
    17     7    27 1   
    18     8     9 ar  
    19     8    28 1   
    20     9    10 1   
    21    10    11 2   
    22    10    12 1   
    23    12    13 1   
    24    12    29 1   
    25    13    14 1   
    26    14    15 ar  
    27    14    19 ar  
    28    15    16 ar  
    29    15    30 1   
    30    16    17 ar  
    31    16    32 1   
    32    17    18 ar  
    33    17    33 1   
    34    18    19 ar  
    35    18    34 1   
    36    19    31 1   
@<TRIPOS>SUBSTRUCTURE
     1 NYJ         1 TEMP              0 ****  ****    0 ROOT
