@<TRIPOS>MOLECULE
NYJ
   34    36     1     0     0
SMALL
bcc


@<TRIPOS>ATOM
      1 CAI         -0.3920     2.1640     0.5500 c3         1 NYJ      -0.034900
      2 CAH          0.1390     0.8150     0.1420 cc         1 NYJ      -0.129400
      3 CAG          1.5660     0.5240     0.0690 ca         1 NYJ       0.029200
      4 CAB          2.5900     1.5140     0.0480 ca         1 NYJ      -0.085300
      5 CAA          2.3510     2.9950    -0.0950 c3         1 NYJ      -0.043800
      6 CAC          3.9140     1.1080     0.0860 ca         1 NYJ      -0.103000
      7 CAD          4.2940    -0.2320     0.1120 ca         1 NYJ      -0.147000
      8 CAE          3.3220    -1.1980     0.0480 ca         1 NYJ      -0.069000
      9 CAF          1.9740    -0.8300     0.0150 ca         1 NYJ      -0.168600
     10 CAL          1.0020    -1.9150    -0.1240 c          1 NYJ       0.711100
     11 OAM          1.2950    -3.1020    -0.2070 o          1 NYJ      -0.637500
     12 NAK         -0.2900    -1.5040    -0.2000 ns         1 NYJ      -0.446100
     13 CAJ         -0.7320    -0.2130    -0.0320 cd         1 NYJ       0.104400
     14 CAN         -2.2050    -0.0870    -0.0310 ca         1 NYJ      -0.079800
     15 CAO         -2.8450     0.7660    -0.9280 ca         1 NYJ      -0.106500
     16 CAP         -4.2290     0.8550    -0.9460 ca         1 NYJ      -0.130000
     17 CAQ         -4.9880     0.0900    -0.0690 ca         1 NYJ      -0.114000
     18 CAR         -4.3570    -0.7660     0.8240 ca         1 NYJ      -0.130000
     19 CAS         -2.9730    -0.8590     0.8400 ca         1 NYJ      -0.106500
     20 HAI1        -0.3830     2.9010    -0.2520 hc         1 NYJ       0.042367
     21 HAI2        -1.4190     2.0850     0.8980 hc         1 NYJ       0.042367
     22 HAI3         0.1840     2.5700     1.3790 hc         1 NYJ       0.042367
     23 HAA1         1.9940     3.4640     0.8220 hc         1 NYJ       0.042033
     24 HAA2         3.2860     3.4880    -0.3590 hc         1 NYJ       0.042033
     25 HAA3         1.6350     3.2210    -0.8810 hc         1 NYJ       0.042033
     26 HAC          4.6850     1.8680     0.0770 ha         1 NYJ       0.128000
     27 HAD          5.3420    -0.4990     0.1470 ha         1 NYJ       0.137000
     28 HAE          3.5860    -2.2460     0.0160 ha         1 NYJ       0.156000
     29 HAK         -0.9810    -2.2240    -0.3670 hn         1 NYJ       0.329500
     30 HAO         -2.2560     1.3530    -1.6220 ha         1 NYJ       0.139500
     31 HAS         -2.4900    -1.5240     1.5460 ha         1 NYJ       0.139500
     32 HAP         -4.7160     1.5160    -1.6500 ha         1 NYJ       0.136000
     33 HAQ         -6.0680     0.1610    -0.0830 ha         1 NYJ       0.135000
     34 HAR         -4.9440    -1.3620     1.5110 ha         1 NYJ       0.136000
@<TRIPOS>BOND
     1     1     2 1   
     2     1    20 1   
     3     1    21 1   
     4     1    22 1   
     5     2     3 1   
     6     2    13 2   
     7     3     4 ar  
     8     3     9 ar  
     9     4     5 1   
    10     4     6 ar  
    11     5    23 1   
    12     5    24 1   
    13     5    25 1   
    14     6     7 ar  
    15     6    26 1   
    16     7     8 ar  
    17     7    27 1   
    18     8     9 ar  
    19     8    28 1   
    20     9    10 1   
    21    10    11 2   
    22    10    12 1   
    23    12    13 1   
    24    12    29 1   
    25    13    14 1   
    26    14    15 ar  
    27    14    19 ar  
    28    15    16 ar  
    29    15    30 1   
    30    16    17 ar  
    31    16    32 1   
    32    17    18 ar  
    33    17    33 1   
    34    18    19 ar  
    35    18    34 1   
    36    19    31 1   
@<TRIPOS>SUBSTRUCTURE
     1 NYJ         1 TEMP              0 ****  ****    0 ROOT
