@<TRIPOS>MOLECULE
NYK
   21    22     1     0     0
SMALL
abcg2


@<TRIPOS>ATOM
      1 C01         -1.5630    -1.1670    -0.5030 c3         1 NYK       0.007700
      2 C02         -2.9970    -1.0440    -0.2840 c1         1 NYK       0.295900
      3 N03         -4.1330    -0.9920    -0.1120 n1         1 NYK      -0.441000
      4 C04         -0.7340    -0.2700     0.4230 c5         1 NYK      -0.098400
      5 C05         -0.9680     1.2130     0.1340 c          1 NYK       0.563000
      6 N06          0.2460     1.7680    -0.1220 ns         1 NYK      -0.147000
      7 C07          1.2730     0.8320    -0.0850 ca         1 NYK      -0.024000
      8 C08          2.6230     1.0200    -0.3070 ca         1 NYK      -0.144000
      9 C09          3.4510    -0.0960    -0.2110 ca         1 NYK      -0.071000
     10 C10          2.9390    -1.3500     0.0980 ca         1 NYK      -0.140000
     11 C11          1.5730    -1.5180     0.3230 ca         1 NYK      -0.054000
     12 C12          0.7450    -0.4190     0.2290 ca         1 NYK      -0.152300
     13 O13         -2.0370     1.7820     0.1240 o          1 NYK      -0.507000
     14 H01         -1.2990    -2.2120    -0.3330 hc         1 NYK       0.076700
     15 H01A        -1.3490    -0.9490    -1.5510 hc         1 NYK       0.076700
     16 H04         -1.0170    -0.4690     1.4620 hc         1 NYK       0.101700
     17 HN06         0.3710     2.7440    -0.3470 hn         1 NYK       0.176000
     18 H08          3.0260     1.9950    -0.5480 ha         1 NYK       0.124000
     19 H09          4.5130     0.0210    -0.3800 ha         1 NYK       0.117000
     20 H10          3.6050    -2.2000     0.1670 ha         1 NYK       0.120000
     21 H11          1.1760    -2.4940     0.5710 ha         1 NYK       0.119000
@<TRIPOS>BOND
     1     1     2 1   
     2     1     4 1   
     3     1    14 1   
     4     1    15 1   
     5     2     3 3   
     6     4     5 1   
     7     4    12 1   
     8     4    16 1   
     9     5     6 1   
    10     5    13 2   
    11     6     7 1   
    12     6    17 1   
    13     7     8 ar  
    14     7    12 ar  
    15     8     9 ar  
    16     8    18 1   
    17     9    10 ar  
    18     9    19 1   
    19    10    11 ar  
    20    10    20 1   
    21    11    12 ar  
    22    11    21 1   
@<TRIPOS>SUBSTRUCTURE
     1 NYK         1 TEMP              0 ****  ****    0 ROOT
