@<TRIPOS>MOLECULE
NYK
   21    22     1     0     0
SMALL
No Charge or Current Charge


@<TRIPOS>ATOM
      1 C01         -1.5530    -1.1670    -0.5410 c3         1 NYK       0.007700
      2 C02         -3.0120    -1.0820    -0.3860 c1         1 NYK       0.295900
      3 N03         -4.1690    -1.0410    -0.2570 n1         1 NYK      -0.441000
      4 C04         -0.7630    -0.2760     0.4570 c5         1 NYK      -0.098400
      5 C05         -1.0210     1.2560     0.2110 c          1 NYK       0.563000
      6 N06          0.2180     1.7270    -0.1720 ns         1 NYK      -0.147000
      7 C07          1.2670     0.8190    -0.1300 ca         1 NYK      -0.024000
      8 C08          2.6260     1.0100    -0.3990 ca         1 NYK      -0.144000
      9 C09          3.4830    -0.1020    -0.2570 ca         1 NYK      -0.071000
     10 C10          2.9630    -1.3550     0.1470 ca         1 NYK      -0.140000
     11 C11          1.5840    -1.5120     0.4120 ca         1 NYK      -0.054000
     12 C12          0.7490    -0.3940     0.2660 ca         1 NYK      -0.152300
     13 O13         -2.0110     1.9400     0.4390 o          1 NYK      -0.507000
     14 H01         -1.2650    -2.2170    -0.4130 hc         1 NYK       0.076700
     15 H01A        -1.3000    -0.8990    -1.5740 hc         1 NYK       0.076700
     16 H04         -1.1010    -0.5270     1.4690 hc         1 NYK       0.101700
     17 HN06         0.3800     2.7120    -0.3350 hn         1 NYK       0.176000
     18 H08          3.0100     1.9810    -0.7050 ha         1 NYK       0.124000
     19 H09          4.5470     0.0050    -0.4570 ha         1 NYK       0.117000
     20 H10          3.6310    -2.2070     0.2530 ha         1 NYK       0.120000
     21 H11          1.1820    -2.4750     0.7190 ha         1 NYK       0.119000
@<TRIPOS>BOND
     1     1     2 1   
     2     1     4 1   
     3     1    14 1   
     4     1    15 1   
     5     2     3 3   
     6     4     5 1   
     7     4    12 1   
     8     4    16 1   
     9     5     6 1   
    10     5    13 2   
    11     6     7 1   
    12     6    17 1   
    13     7     8 ar  
    14     7    12 ar  
    15     8     9 ar  
    16     8    18 1   
    17     9    10 ar  
    18     9    19 1   
    19    10    11 ar  
    20    10    20 1   
    21    11    12 ar  
    22    11    21 1   
@<TRIPOS>SUBSTRUCTURE
     1 NYK         1 TEMP              0 ****  ****    0 ROOT
