@<TRIPOS>MOLECULE
NYL
   21    21     1     0     0
SMALL
bcc


@<TRIPOS>ATOM
      1 C1          -0.2040     0.0990    -0.4570 ca         1 NYL       0.170600
      2 C2          -1.2360    -0.0840    -1.3930 ca         1 NYL      -0.201500
      3 C3           1.1090     0.1960    -0.9340 ca         1 NYL      -0.201500
      4 N4          -0.5160     0.2020     0.8800 nu         1 NYL      -0.752600
      5 C5          -0.9610    -0.1520    -2.7460 ca         1 NYL      -0.087500
      6 C6           1.3690     0.1320    -2.2980 ca         1 NYL      -0.087500
      7 C7           0.3450    -0.0420    -3.2170 ca         1 NYL      -0.178000
      8 C13          0.5000     0.1180     1.9060 c3         1 NYL       0.239000
      9 C15         -0.1120     0.3520     3.2520 c2         1 NYL      -0.186200
     10 C16         -0.0330    -0.5020     4.2640 c2         1 NYL      -0.204000
     11 HC2         -2.2590    -0.1680    -1.0460 ha         1 NYL       0.127500
     12 HC3          1.9370     0.3190    -0.2500 ha         1 NYL       0.127500
     13 HN4         -1.3930    -0.2260     1.1360 hn         1 NYL       0.409800
     14 HC5         -1.7770    -0.2930    -3.4430 ha         1 NYL       0.125500
     15 HC6          2.3940     0.2120    -2.6380 ha         1 NYL       0.125500
     16 HC7          0.5550    -0.0940    -4.2770 ha         1 NYL       0.130000
     17 H131         1.2480     0.8960     1.7260 h1         1 NYL       0.042200
     18 H132         1.0350    -0.8420     1.8940 h1         1 NYL       0.042200
     19 H15         -0.6420     1.2910     3.3760 ha         1 NYL       0.131000
     20 H161        -0.4780    -0.2810     5.2250 ha         1 NYL       0.114500
     21 H162         0.4840    -1.4500     4.1740 ha         1 NYL       0.114500
@<TRIPOS>BOND
     1     1     2 ar  
     2     1     3 ar  
     3     1     4 1   
     4     2     5 ar  
     5     2    11 1   
     6     3     6 ar  
     7     3    12 1   
     8     4     8 1   
     9     4    13 1   
    10     5     7 ar  
    11     5    14 1   
    12     6     7 ar  
    13     6    15 1   
    14     7    16 1   
    15     8     9 1   
    16     8    17 1   
    17     8    18 1   
    18     9    10 2   
    19     9    19 1   
    20    10    20 1   
    21    10    21 1   
@<TRIPOS>SUBSTRUCTURE
     1 NYL         1 TEMP              0 ****  ****    0 ROOT
