@<TRIPOS>MOLECULE
NYL
   21    21     1     0     0
SMALL
No Charge or Current Charge


@<TRIPOS>ATOM
      1 C1          -0.0740     0.0990    -0.4120 ca         1 NYL       0.309000
      2 C2          -1.1640    -0.2680    -1.2190 ca         1 NYL      -0.183500
      3 C3           1.1790     0.3390    -1.0070 ca         1 NYL      -0.183500
      4 N4          -0.2640     0.2190     0.9640 nu         1 NYL      -0.946200
      5 C5          -1.0070    -0.3970    -2.6110 ca         1 NYL      -0.069500
      6 C6           1.3400     0.2100    -2.3980 ca         1 NYL      -0.069500
      7 C7           0.2460    -0.1580    -3.1990 ca         1 NYL      -0.160000
      8 C13          0.7630     0.3510     1.9950 c3         1 NYL       0.239000
      9 C15          0.0700     0.3800     3.3360 c2         1 NYL      -0.236200
     10 C16         -0.5400    -0.6620     3.9280 c2         1 NYL      -0.304000
     11 HC2         -2.1350    -0.4540    -0.7710 ha         1 NYL       0.109500
     12 HC3          2.0320     0.6260    -0.4000 ha         1 NYL       0.109500
     13 HN4         -1.2060     0.0200     1.3020 hn         1 NYL       0.465000
     14 HC5         -1.8550    -0.6820    -3.2310 ha         1 NYL       0.107500
     15 HC6          2.3100     0.3970    -2.8540 ha         1 NYL       0.107500
     16 HC7          0.3690    -0.2580    -4.2750 ha         1 NYL       0.112000
     17 H131         1.3390     1.2760     1.8490 h1         1 NYL       0.042200
     18 H132         1.4600    -0.4980     1.9530 h1         1 NYL       0.042200
     19 H15          0.1000     1.3560     3.8240 ha         1 NYL       0.181000
     20 H161        -1.0200    -0.5660     4.9030 ha         1 NYL       0.164500
     21 H162        -0.5780    -1.6470     3.4570 ha         1 NYL       0.164500
@<TRIPOS>BOND
     1     1     2 ar  
     2     1     3 ar  
     3     1     4 1   
     4     2     5 ar  
     5     2    11 1   
     6     3     6 ar  
     7     3    12 1   
     8     4     8 1   
     9     4    13 1   
    10     5     7 ar  
    11     5    14 1   
    12     6     7 ar  
    13     6    15 1   
    14     7    16 1   
    15     8     9 1   
    16     8    17 1   
    17     8    18 1   
    18     9    10 2   
    19     9    19 1   
    20    10    20 1   
    21    10    21 1   
@<TRIPOS>SUBSTRUCTURE
     1 NYL         1 TEMP              0 ****  ****    0 ROOT
