@<TRIPOS>MOLECULE
NYO
   67    71     1     0     0
SMALL
bcc


@<TRIPOS>ATOM
      1 C4          -0.9230   -20.4660    36.0750 ca         1 NYO       0.257600
      2 C5          -0.7600   -19.5520    35.0010 ca         1 NYO      -0.239000
      3 C6          -1.8170   -18.8240    34.5170 ca         1 NYO      -0.025000
      4 N1          -6.8470   -16.4940    36.9470 n          1 NYO      -0.517400
      5 N3          -7.7470   -17.8870    45.5580 na         1 NYO      -0.300900
      6 C2           1.4490   -21.0730    35.9850 c3         1 NYO       0.224800
      7 C9          -5.5860   -19.3740    36.2700 c          1 NYO       0.753800
      8 O           -4.4730   -20.0440    36.6560 os         1 NYO      -0.335200
      9 C8          -3.2600   -19.8570    36.0880 ca         1 NYO       0.223100
     10 C25         -2.2190   -20.6060    36.6000 ca         1 NYO      -0.257000
     11 N            0.1300   -21.1580    36.5870 nh         1 NYO      -0.680000
     12 C3           1.6220   -21.9040    34.7190 c3         1 NYO      -0.120100
     13 C1          -0.0660   -22.1410    37.6380 c3         1 NYO       0.224800
     14 C           -0.6110   -23.4820    37.1600 c3         1 NYO      -0.120100
     15 C10         -5.4740   -18.4370    35.1680 cc         1 NYO      -0.252400
     16 C23         -4.2630   -18.2200    34.5830 cd         1 NYO       0.080600
     17 C24         -4.0630   -17.2290    33.4810 c3         1 NYO      -0.066900
     18 C7          -3.1110   -18.9480    35.0420 ca         1 NYO      -0.211800
     19 C11         -6.7340   -17.7080    34.7940 c3         1 NYO      -0.040200
     20 C12         -6.8740   -16.3630    35.5070 c3         1 NYO       0.121000
     21 C22         -5.7050   -16.2910    37.7320 c          1 NYO       0.828500
     22 O2          -4.6350   -15.9100    37.3160 o          1 NYO      -0.626500
     23 N5          -6.0500   -16.5940    38.9980 ns         1 NYO      -0.581900
     24 C14         -7.4320   -16.9800    39.1350 c5         1 NYO       0.015400
     25 C13         -7.8990   -16.9290    37.6910 c          1 NYO       0.725500
     26 O3          -9.0060   -17.1920    37.2880 o          1 NYO      -0.570500
     27 C21         -8.2330   -16.0500    40.0530 c5         1 NYO      -0.102400
     28 C20         -7.8960   -16.5760    41.4390 c5         1 NYO       0.110000
     29 N2          -7.7500   -18.0100    41.2180 n          1 NYO      -0.497800
     30 C15         -7.6280   -18.3410    39.8040 c5         1 NYO       0.106000
     31 C16         -7.8970   -19.0110    42.1110 c          1 NYO       0.609600
     32 O1          -7.9540   -20.1790    41.7430 o          1 NYO      -0.563100
     33 C17         -7.9730   -18.6800    43.5510 cc         1 NYO       0.255800
     34 N4          -8.5490   -19.5770    44.4120 nc         1 NYO      -0.616000
     35 C19         -8.4030   -19.0680    45.6020 cd         1 NYO       0.385400
     36 C18         -7.4650   -17.6190    44.2600 cd         1 NYO      -0.229600
     37 H1           0.2060   -19.4090    34.5400 ha         1 NYO       0.135000
     38 H2          -1.6320   -18.1380    33.7010 ha         1 NYO       0.130000
     39 H4           2.1670   -21.4030    36.7350 h1         1 NYO       0.050450
     40 H5           1.6960   -20.0280    35.7870 h1         1 NYO       0.050450
     41 H6          -2.4380   -21.2910    37.4060 ha         1 NYO       0.156000
     42 H7           2.6270   -21.7690    34.3200 hc         1 NYO       0.044200
     43 H8           1.4840   -22.9660    34.9220 hc         1 NYO       0.044200
     44 H9           0.9140   -21.6160    33.9420 hc         1 NYO       0.044200
     45 H10          0.8990   -22.2950    38.1200 h1         1 NYO       0.050450
     46 H11         -0.7150   -21.7250    38.4120 h1         1 NYO       0.050450
     47 H12         -0.7500   -24.1500    38.0110 hc         1 NYO       0.044200
     48 H13         -1.5740   -23.3780    36.6600 hc         1 NYO       0.044200
     49 H14          0.0780   -23.9630    36.4670 hc         1 NYO       0.044200
     50 H15         -4.9850   -16.7590    33.1540 hc         1 NYO       0.052700
     51 H16         -3.3870   -16.4370    33.8060 hc         1 NYO       0.052700
     52 H17         -3.6050   -17.7030    32.6110 hc         1 NYO       0.052700
     53 H18         -6.7710   -17.5190    33.7200 hc         1 NYO       0.066700
     54 H19         -7.6030   -18.3280    35.0140 hc         1 NYO       0.066700
     55 H20         -6.0660   -15.6920    35.2210 h1         1 NYO       0.063700
     56 H21         -7.8110   -15.8830    35.2210 h1         1 NYO       0.063700
     57 H22         -5.4030   -16.5100    39.7650 hn         1 NYO       0.351500
     58 H23         -7.9730   -15.0020    39.9180 hc         1 NYO       0.074700
     59 H24         -9.2980   -16.1750    39.8490 hc         1 NYO       0.074700
     60 H25         -6.9670   -16.1290    41.8040 h1         1 NYO       0.044200
     61 H26         -8.6810   -16.3580    42.1630 h1         1 NYO       0.044200
     62 H27         -8.5370   -18.8210    39.4320 h1         1 NYO       0.090200
     63 H28         -6.7900   -19.0100    39.6140 h1         1 NYO       0.090200
     64 H30         -8.7500   -19.5010    46.5270 h5         1 NYO       0.060100
     65 H31         -6.9210   -16.7360    43.9730 h4         1 NYO       0.176000
     66 O4          -6.5970   -19.6180    36.8900 o          1 NYO      -0.585500
     67 H3          -7.5060   -17.3080    46.3480 hn         1 NYO       0.303700
@<TRIPOS>BOND
     1     1     2 ar  
     2     1    10 ar  
     3     1    11 1   
     4     2     3 ar  
     5     2    37 1   
     6     3    18 ar  
     7     3    38 1   
     8     4    20 1   
     9     4    21 1   
    10     4    25 1   
    11     5    35 1   
    12     5    36 1   
    13     5    67 1   
    14     6    11 1   
    15     6    12 1   
    16     6    39 1   
    17     6    40 1   
    18     7     8 1   
    19     7    15 1   
    20     7    66 2   
    21     8     9 1   
    22     9    10 ar  
    23     9    18 ar  
    24    10    41 1   
    25    11    13 1   
    26    12    42 1   
    27    12    43 1   
    28    12    44 1   
    29    13    14 1   
    30    13    45 1   
    31    13    46 1   
    32    14    47 1   
    33    14    48 1   
    34    14    49 1   
    35    15    16 2   
    36    15    19 1   
    37    16    17 1   
    38    16    18 1   
    39    17    50 1   
    40    17    51 1   
    41    17    52 1   
    42    19    20 1   
    43    19    53 1   
    44    19    54 1   
    45    20    55 1   
    46    20    56 1   
    47    21    22 2   
    48    21    23 1   
    49    23    24 1   
    50    23    57 1   
    51    24    25 1   
    52    24    27 1   
    53    24    30 1   
    54    25    26 2   
    55    27    28 1   
    56    27    58 1   
    57    27    59 1   
    58    28    29 1   
    59    28    60 1   
    60    28    61 1   
    61    29    30 1   
    62    29    31 1   
    63    30    62 1   
    64    30    63 1   
    65    31    32 2   
    66    31    33 1   
    67    33    34 1   
    68    33    36 2   
    69    34    35 2   
    70    35    64 1   
    71    36    65 1   
@<TRIPOS>SUBSTRUCTURE
     1 NYO         1 TEMP              0 ****  ****    0 ROOT
