@<TRIPOS>MOLECULE
NYO
   67    71     1     0     0
SMALL
No Charge or Current Charge


@<TRIPOS>ATOM
      1 C4          -0.8750   -20.4300    36.0540 ca         1 NYO       0.396000
      2 C5          -0.6170   -19.4290    35.1030 ca         1 NYO      -0.221000
      3 C6          -1.6520   -18.6190    34.6090 ca         1 NYO      -0.007000
      4 N1          -6.9780   -16.4530    36.8990 n          1 NYO      -0.383400
      5 N3          -7.5290   -18.0940    45.4880 na         1 NYO      -0.300500
      6 C2           1.2850   -21.6970    35.6830 c3         1 NYO       0.224800
      7 C9          -5.5890   -19.3280    36.0570 c          1 NYO       0.678300
      8 O           -4.4890   -20.0230    36.4650 os         1 NYO      -0.335200
      9 C8          -3.2250   -19.8020    36.0070 ca         1 NYO       0.223100
     10 C25         -2.1920   -20.6070    36.4990 ca         1 NYO      -0.239000
     11 N            0.1690   -21.2490    36.5510 nh         1 NYO      -0.818400
     12 C3           0.8220   -22.5350    34.4780 c3         1 NYO      -0.120100
     13 C1           0.2110   -21.6590    37.9730 c3         1 NYO       0.224800
     14 C           -0.1440   -23.1410    38.1950 c3         1 NYO      -0.120100
     15 C10         -5.3760   -18.2440    35.0470 cc         1 NYO      -0.252400
     16 C23         -4.0970   -17.9710    34.5770 cd         1 NYO       0.080600
     17 C24         -3.8210   -16.8430    33.5980 c3         1 NYO      -0.066900
     18 C7          -2.9780   -18.7970    35.0630 ca         1 NYO      -0.211800
     19 C11         -6.6430   -17.4980    34.6300 c3         1 NYO      -0.040200
     20 C12         -6.9010   -16.2100    35.4450 c3         1 NYO       0.121000
     21 C22         -5.8980   -16.2860    37.7390 c          1 NYO       0.619000
     22 O2          -4.7700   -15.9510    37.4250 o          1 NYO      -0.551000
     23 N5          -6.3110   -16.5630    39.0070 ns         1 NYO      -0.514900
     24 C14         -7.7390   -16.9450    39.0170 c5         1 NYO       0.015400
     25 C13         -8.1630   -16.8050    37.5260 c          1 NYO       0.583000
     26 O3          -9.2550   -16.9490    36.9940 o          1 NYO      -0.495000
     27 C21         -8.4870   -16.0480    40.0260 c5         1 NYO      -0.102400
     28 C20         -8.0850   -16.6920    41.3830 c5         1 NYO       0.110000
     29 N2          -7.8910   -18.1260    41.0490 n          1 NYO      -0.430800
     30 C15         -7.8690   -18.3780    39.5820 c5         1 NYO       0.106000
     31 C16         -7.8320   -19.2110    41.9720 c          1 NYO       0.542600
     32 O1          -7.8600   -20.3520    41.5150 o          1 NYO      -0.563100
     33 C17         -7.7460   -18.9710    43.4770 cc         1 NYO       0.190500
     34 N4          -7.8130   -19.9970    44.4020 nc         1 NYO      -0.616000
     35 C19         -7.6890   -19.4570    45.6040 cd         1 NYO       0.385400
     36 C18         -7.5550   -17.7740    44.1390 cd         1 NYO      -0.197000
     37 H1           0.3930   -19.2620    34.7450 ha         1 NYO       0.117000
     38 H2          -1.4040   -17.8600    33.8710 ha         1 NYO       0.112000
     39 H4           1.9890   -22.3070    36.2660 h1         1 NYO       0.050450
     40 H5           1.8560   -20.8310    35.3240 h1         1 NYO       0.050450
     41 H6          -2.4270   -21.3800    37.2210 ha         1 NYO       0.138000
     42 H7           1.6870   -22.8670    33.8940 hc         1 NYO       0.044200
     43 H8           0.2720   -23.4220    34.8160 hc         1 NYO       0.044200
     44 H9           0.1690   -21.9500    33.8210 hc         1 NYO       0.044200
     45 H10          1.2150   -21.4730    38.3790 h1         1 NYO       0.050450
     46 H11         -0.4770   -21.0400    38.5650 h1         1 NYO       0.050450
     47 H12         -0.1200   -23.3790    39.2650 hc         1 NYO       0.044200
     48 H13         -1.1480   -23.3620    37.8160 hc         1 NYO       0.044200
     49 H14          0.5710   -23.7940    37.6830 hc         1 NYO       0.044200
     50 H15         -4.6710   -16.1730    33.4440 hc         1 NYO       0.052700
     51 H16         -3.0020   -16.2090    33.9550 hc         1 NYO       0.052700
     52 H17         -3.5360   -17.2410    32.6170 hc         1 NYO       0.052700
     53 H18         -6.6060   -17.2430    33.5650 hc         1 NYO       0.066700
     54 H19         -7.5270   -18.1410    34.7160 hc         1 NYO       0.066700
     55 H20         -6.0980   -15.4880    35.2450 h1         1 NYO       0.063700
     56 H21         -7.8380   -15.7500    35.1050 h1         1 NYO       0.063700
     57 H22         -5.6610   -16.5230    39.7830 hn         1 NYO       0.351500
     58 H23         -8.2140   -14.9880    39.9590 hc         1 NYO       0.074700
     59 H24         -9.5710   -16.1150    39.8760 hc         1 NYO       0.074700
     60 H25         -7.1470   -16.2540    41.7470 h1         1 NYO       0.044200
     61 H26         -8.8710   -16.5400    42.1350 h1         1 NYO       0.044200
     62 H27         -8.8050   -18.8530    39.2590 h1         1 NYO       0.090200
     63 H28         -7.0340   -19.0240    39.2770 h1         1 NYO       0.090200
     64 H30         -7.6980   -19.9680    46.5600 h5         1 NYO       0.060100
     65 H31         -7.4130   -16.7580    43.7990 h4         1 NYO       0.158000
     66 O4          -6.6850   -19.6040    36.5260 o          1 NYO      -0.510000
     67 H3          -7.4040   -17.4560    46.2670 hn         1 NYO       0.354000
@<TRIPOS>BOND
     1     1     2 ar  
     2     1    10 ar  
     3     1    11 1   
     4     2     3 ar  
     5     2    37 1   
     6     3    18 ar  
     7     3    38 1   
     8     4    20 1   
     9     4    21 1   
    10     4    25 1   
    11     5    35 1   
    12     5    36 1   
    13     5    67 1   
    14     6    11 1   
    15     6    12 1   
    16     6    39 1   
    17     6    40 1   
    18     7     8 1   
    19     7    15 1   
    20     7    66 2   
    21     8     9 1   
    22     9    10 ar  
    23     9    18 ar  
    24    10    41 1   
    25    11    13 1   
    26    12    42 1   
    27    12    43 1   
    28    12    44 1   
    29    13    14 1   
    30    13    45 1   
    31    13    46 1   
    32    14    47 1   
    33    14    48 1   
    34    14    49 1   
    35    15    16 2   
    36    15    19 1   
    37    16    17 1   
    38    16    18 1   
    39    17    50 1   
    40    17    51 1   
    41    17    52 1   
    42    19    20 1   
    43    19    53 1   
    44    19    54 1   
    45    20    55 1   
    46    20    56 1   
    47    21    22 2   
    48    21    23 1   
    49    23    24 1   
    50    23    57 1   
    51    24    25 1   
    52    24    27 1   
    53    24    30 1   
    54    25    26 2   
    55    27    28 1   
    56    27    58 1   
    57    27    59 1   
    58    28    29 1   
    59    28    60 1   
    60    28    61 1   
    61    29    30 1   
    62    29    31 1   
    63    30    62 1   
    64    30    63 1   
    65    31    32 2   
    66    31    33 1   
    67    33    34 1   
    68    33    36 2   
    69    34    35 2   
    70    35    64 1   
    71    36    65 1   
@<TRIPOS>SUBSTRUCTURE
     1 NYO         1 TEMP              0 ****  ****    0 ROOT
