@<TRIPOS>MOLECULE
NYP
   30    30     1     0     0
SMALL
bcc


@<TRIPOS>ATOM
      1 C8N          1.5860    -1.2790    -1.4880 c3         1 NYP      -0.032400
      2 N8           1.4180    -0.7850    -0.1230 nh         1 NYP      -0.090100
      3 C9           2.2810    -0.0180     0.4430 ce         1 NYP       0.407500
      4 C10          3.4940     0.4560    -0.1590 ce         1 NYP      -0.351600
      5 C11          4.3040     1.2400     0.5600 c2         1 NYP      -0.017000
      6 C7           0.1790    -1.1570     0.5630 c3         1 NYP      -0.007700
      7 C1          -1.0410    -0.4760    -0.0500 c6         1 NYP      -0.084700
      8 C2          -2.2900    -0.9130     0.7120 c6         1 NYP      -0.069400
      9 C3          -3.5490    -0.3530     0.0600 c6         1 NYP      -0.049200
     10 C4          -3.3950     1.0890    -0.3120 c2         1 NYP      -0.140200
     11 C5          -2.2220     1.7170    -0.3370 c2         1 NYP      -0.189200
     12 C6          -0.9160     1.0460    -0.0350 c6         1 NYP      -0.040200
     13 H8N1         0.8310    -2.0330    -1.6820 h1         1 NYP       0.093367
     14 H8N2         1.4700    -0.4660    -2.2030 h1         1 NYP       0.093367
     15 H8N3         2.5670    -1.7320    -1.6070 h1         1 NYP       0.093367
     16 H9           2.0620     0.2910     1.4590 h4         1 NYP       0.051800
     17 H10          3.7370     0.1890    -1.1780 ha         1 NYP       0.172000
     18 H11          4.0710     1.5220     1.5790 ha         1 NYP       0.151500
     19 H111         5.2240     1.6230     0.1420 ha         1 NYP       0.151500
     20 HC71         0.0870    -2.2420     0.5010 h1         1 NYP       0.091200
     21 HC72         0.2800    -0.8860     1.6140 h1         1 NYP       0.091200
     22 H1          -1.1500    -0.8070    -1.0890 hc         1 NYP       0.071700
     23 H2          -2.2190    -0.5570     1.7450 hc         1 NYP       0.052700
     24 H21         -2.3480    -2.0030     0.7580 hc         1 NYP       0.052700
     25 H3          -4.3980    -0.4680     0.7390 hc         1 NYP       0.067700
     26 H31         -3.8070    -0.9360    -0.8310 hc         1 NYP       0.067700
     27 H4          -4.2960     1.6350    -0.5700 ha         1 NYP       0.145000
     28 H5          -2.1830     2.7700    -0.5950 ha         1 NYP       0.141000
     29 H6          -0.1710     1.3800    -0.7640 hc         1 NYP       0.038700
     30 H61         -0.5460     1.3870     0.9420 hc         1 NYP       0.038700
@<TRIPOS>BOND
     1     1     2 1   
     2     1    13 1   
     3     1    14 1   
     4     1    15 1   
     5     2     3 2   
     6     2     6 1   
     7     3     4 1   
     8     3    16 1   
     9     4     5 2   
    10     4    17 1   
    11     5    18 1   
    12     5    19 1   
    13     6     7 1   
    14     6    20 1   
    15     6    21 1   
    16     7     8 1   
    17     7    12 1   
    18     7    22 1   
    19     8     9 1   
    20     8    23 1   
    21     8    24 1   
    22     9    10 1   
    23     9    25 1   
    24     9    26 1   
    25    10    11 2   
    26    10    27 1   
    27    11    12 1   
    28    11    28 1   
    29    12    29 1   
    30    12    30 1   
@<TRIPOS>SUBSTRUCTURE
     1 NYP         1 TEMP              0 ****  ****    0 ROOT
