@<TRIPOS>MOLECULE
NYP
   30    30     1     0     0
SMALL
No Charge or Current Charge


@<TRIPOS>ATOM
      1 C8N          1.7050    -1.4730    -1.4310 c3         1 NYP      -0.003100
      2 N8           1.4480    -0.8710    -0.1060 nh         1 NYP      -0.148700
      3 C9           2.3270     0.0360     0.5020 ce         1 NYP       0.407500
      4 C10          3.5590     0.5140    -0.1560 ce         1 NYP      -0.401600
      5 C11          4.4090     1.4110     0.4030 c2         1 NYP      -0.117000
      6 C7           0.1630    -1.2160     0.5360 c3         1 NYP       0.021600
      7 C1          -1.0800    -0.4710    -0.0350 c6         1 NYP      -0.084700
      8 C2          -2.3900    -0.9620     0.6360 c6         1 NYP      -0.069400
      9 C3          -3.6330    -0.3180    -0.0280 c6         1 NYP      -0.049200
     10 C4          -3.4560     1.1770    -0.2590 c2         1 NYP      -0.190200
     11 C5          -2.2640     1.7960    -0.1980 c2         1 NYP      -0.239200
     12 C6          -0.9570     1.0740     0.1060 c6         1 NYP      -0.040200
     13 H8N1         0.9190    -2.1900    -1.7000 h1         1 NYP       0.093367
     14 H8N2         1.7340    -0.6940    -2.2030 h1         1 NYP       0.093367
     15 H8N3         2.6640    -2.0060    -1.4290 h1         1 NYP       0.093367
     16 H9           2.0510     0.4270     1.4830 h4         1 NYP       0.051800
     17 H10          3.7840     0.1150    -1.1460 ha         1 NYP       0.222000
     18 H11          4.2370     1.8450     1.3910 ha         1 NYP       0.201500
     19 H111         5.3140     1.7460    -0.1090 ha         1 NYP       0.201500
     20 HC71        -0.0060    -2.2970     0.4360 h1         1 NYP       0.091200
     21 HC72         0.2220    -1.0130     1.6140 h1         1 NYP       0.091200
     22 H1          -1.1340    -0.7190    -1.1050 hc         1 NYP       0.071700
     23 H2          -2.3730    -0.7080     1.7050 hc         1 NYP       0.052700
     24 H21         -2.4680    -2.0560     0.5760 hc         1 NYP       0.052700
     25 H3          -4.5160    -0.4970     0.6010 hc         1 NYP       0.067700
     26 H31         -3.8350    -0.8080    -0.9910 hc         1 NYP       0.067700
     27 H4          -4.3650     1.7420    -0.4810 ha         1 NYP       0.195000
     28 H5          -2.1890     2.8720    -0.3700 ha         1 NYP       0.191000
     29 H6          -0.1750     1.4440    -0.5710 hc         1 NYP       0.038700
     30 H61         -0.6380     1.3360     1.1240 hc         1 NYP       0.038700
@<TRIPOS>BOND
     1     1     2 1   
     2     1    13 1   
     3     1    14 1   
     4     1    15 1   
     5     2     3 2   
     6     2     6 1   
     7     3     4 1   
     8     3    16 1   
     9     4     5 2   
    10     4    17 1   
    11     5    18 1   
    12     5    19 1   
    13     6     7 1   
    14     6    20 1   
    15     6    21 1   
    16     7     8 1   
    17     7    12 1   
    18     7    22 1   
    19     8     9 1   
    20     8    23 1   
    21     8    24 1   
    22     9    10 1   
    23     9    25 1   
    24     9    26 1   
    25    10    11 2   
    26    10    27 1   
    27    11    12 1   
    28    11    28 1   
    29    12    29 1   
    30    12    30 1   
@<TRIPOS>SUBSTRUCTURE
     1 NYP         1 TEMP              0 ****  ****    0 ROOT
