@<TRIPOS>MOLECULE
NYQ
   17    18     1     0     0
SMALL
bcc


@<TRIPOS>ATOM
      1 C1          75.8550    15.0760   106.9920 ca         1 NYQ      -0.048000
      2 C2          74.5000    15.1930   107.2070 ca         1 NYQ      -0.146300
      3 C3          74.0030    16.1690   108.0710 ca         1 NYQ       0.076600
      4 C4          72.1390    15.0810   107.3190 c          1 NYQ       0.707500
      5 C5          73.3420    14.4240   106.6570 c5         1 NYQ      -0.119100
      6 C6          74.8380    17.0470   108.7340 ca         1 NYQ      -0.165000
      7 C7          76.2090    16.9330   108.5180 ca         1 NYQ      -0.065000
      8 O           70.9710    14.7900   107.1780 o          1 NYQ      -0.593500
      9 N           72.6210    16.0780   108.1160 ns         1 NYQ      -0.474100
     10 C           76.7010    15.9610   107.6590 ca         1 NYQ      -0.052900
     11 BR          78.5670    15.8280   107.3850 br         1 NYQ      -0.094100
     12 H1          76.2450    14.3190   106.3240 ha         1 NYQ       0.152000
     13 H2          73.2550    14.5000   105.5700 hc         1 NYQ       0.093200
     14 H3          73.3720    13.3600   106.9020 hc         1 NYQ       0.093200
     15 H4          74.4530    17.8050   109.4030 ha         1 NYQ       0.145000
     16 H5          76.8800    17.6110   109.0270 ha         1 NYQ       0.150000
     17 H6          72.0290    16.6750   108.6740 hn         1 NYQ       0.340500
@<TRIPOS>BOND
     1     1     2 ar  
     2     1    10 ar  
     3     1    12 1   
     4     2     3 ar  
     5     2     5 1   
     6     3     6 ar  
     7     3     9 1   
     8     4     5 1   
     9     4     8 2   
    10     4     9 1   
    11     5    13 1   
    12     5    14 1   
    13     6     7 ar  
    14     6    15 1   
    15     7    10 ar  
    16     7    16 1   
    17     9    17 1   
    18    10    11 1   
@<TRIPOS>SUBSTRUCTURE
     1 NYQ         1 TEMP              0 ****  ****    0 ROOT
