@<TRIPOS>MOLECULE
NYQ
   17    18     1     0     0
SMALL
No Charge or Current Charge


@<TRIPOS>ATOM
      1 C1          75.8710    15.0800   106.9890 ca         1 NYQ      -0.030000
      2 C2          74.4930    15.2080   107.2170 ca         1 NYQ      -0.146300
      3 C3          74.0100    16.1740   108.0730 ca         1 NYQ      -0.016000
      4 C4          72.0770    15.0620   107.3060 c          1 NYQ       0.565000
      5 C5          73.3300    14.4040   106.6430 c5         1 NYQ      -0.119100
      6 C6          74.8430    17.0670   108.7530 ca         1 NYQ      -0.147000
      7 C7          76.2340    16.9560   108.5380 ca         1 NYQ      -0.047000
      8 O           70.8880    14.7970   107.1870 o          1 NYQ      -0.518000
      9 N           72.6260    16.0540   108.0940 ns         1 NYQ      -0.148000
     10 C           76.7410    15.9670   107.6600 ca         1 NYQ      -0.052900
     11 Br          78.6280    15.8310   107.3800 br         1 NYQ      -0.094100
     12 H1          76.2580    14.3200   106.3150 ha         1 NYQ       0.134000
     13 H2          73.2310    14.4720   105.5540 hc         1 NYQ       0.093200
     14 H3          73.3490    13.3400   106.8980 hc         1 NYQ       0.093200
     15 H4          74.4360    17.8210   109.4230 ha         1 NYQ       0.127000
     16 H5          76.9160    17.6320   109.0470 ha         1 NYQ       0.132000
     17 H6          72.0480    16.6640   108.6580 hn         1 NYQ       0.174000
@<TRIPOS>BOND
     1     1     2 ar  
     2     1    10 ar  
     3     1    12 1   
     4     2     3 ar  
     5     2     5 1   
     6     3     6 ar  
     7     3     9 1   
     8     4     5 1   
     9     4     8 2   
    10     4     9 1   
    11     5    13 1   
    12     5    14 1   
    13     6     7 ar  
    14     6    15 1   
    15     7    10 ar  
    16     7    16 1   
    17     9    17 1   
    18    10    11 1   
@<TRIPOS>SUBSTRUCTURE
     1 NYQ         1 TEMP              0 ****  ****    0 ROOT
