@<TRIPOS>MOLECULE
NYR
   29    30     1     0     0
SMALL
No Charge or Current Charge


@<TRIPOS>ATOM
      1 N1           6.8840     0.2180    17.0650 na         1 NYR      -0.014200
      2 C4           7.2620    -0.2500    20.6990 c3         1 NYR      -0.063100
      3 C5           8.4610     0.5130    21.2860 c          1 NYR       0.600100
      4 C6          10.9540     0.0920    21.7660 ca         1 NYR      -0.007000
      5 C7          11.3070     1.3230    22.3650 ca         1 NYR      -0.134000
      6 C8          12.6280     1.5580    22.7860 ca         1 NYR      -0.075000
      7 C10         13.2660    -0.6560    22.0220 ca         1 NYR       0.154000
      8 Cl          14.4900    -1.8990    21.8050 cl         1 NYR      -0.215000
      9 C9          13.6090     0.5680    22.6140 ca         1 NYR      -0.131000
     10 C11         11.9470    -0.8920    21.6020 ca         1 NYR      -0.168000
     11 N2           9.6410    -0.2210    21.3170 ns         1 NYR      -0.157000
     12 O            8.3600     1.6730    21.6700 o          1 NYR      -0.563100
     13 C3           6.9680     0.1040    19.2560 cc         1 NYR      -0.203300
     14 C1           6.1170     1.1410    18.8110 cc         1 NYR       0.284300
     15 C            5.3580     2.0510    19.7370 c3         1 NYR      -0.124400
     16 C2           7.4590    -0.4860    18.1290 cd         1 NYR      -0.143000
     17 N            6.0410     1.2390    17.4990 nd         1 NYR      -0.520800
     18 H1           7.0360     0.0380    16.0720 hn         1 NYR       0.374000
     19 H2           6.3810    -0.0370    21.3150 hc         1 NYR       0.061700
     20 H3           7.4680    -1.3260    20.7420 hc         1 NYR       0.061700
     21 H4          10.5750     2.1100    22.5170 ha         1 NYR       0.154000
     22 H5          12.8920     2.5090    23.2460 ha         1 NYR       0.121000
     23 H6          14.6310     0.7480    22.9380 ha         1 NYR       0.132000
     24 H7          11.6990    -1.8470    21.1450 ha         1 NYR       0.124000
     25 H8           9.5520    -1.1580    20.9460 hn         1 NYR       0.148000
     26 H9           4.7770     2.7940    19.1780 hc         1 NYR       0.050700
     27 H10          4.6590     1.4790    20.3590 hc         1 NYR       0.050700
     28 H11          6.0420     2.5930    20.3990 hc         1 NYR       0.050700
     29 H12          8.1450    -1.3160    17.9930 h4         1 NYR       0.152000
@<TRIPOS>BOND
     1     1    16 1   
     2     1    17 1   
     3     1    18 1   
     4     2     3 1   
     5     2    13 1   
     6     2    19 1   
     7     2    20 1   
     8     3    11 1   
     9     3    12 2   
    10     4     5 ar  
    11     4    10 ar  
    12     4    11 1   
    13     5     6 ar  
    14     5    21 1   
    15     6     9 ar  
    16     6    22 1   
    17     7     8 1   
    18     7     9 ar  
    19     7    10 ar  
    20     9    23 1   
    21    10    24 1   
    22    11    25 1   
    23    13    14 1   
    24    13    16 2   
    25    14    15 1   
    26    14    17 2   
    27    15    26 1   
    28    15    27 1   
    29    15    28 1   
    30    16    29 1   
@<TRIPOS>SUBSTRUCTURE
     1 NYR         1 TEMP              0 ****  ****    0 ROOT
