@<TRIPOS>MOLECULE
NYR
   29    30     1     0     0
SMALL
abcg2


@<TRIPOS>ATOM
      1 N1           6.0320     0.8560    16.9910 na         1 NYR      -0.014200
      2 C4           7.8260    -0.4950    19.8600 c3         1 NYR      -0.063100
      3 C5           9.0160     0.3320    20.3490 c          1 NYR       0.600100
      4 C6          11.0420     0.0130    21.7860 ca         1 NYR      -0.007000
      5 C7          11.5310     1.3230    21.7750 ca         1 NYR      -0.134000
      6 C8          12.7180     1.6140    22.4390 ca         1 NYR      -0.075000
      7 C10         12.9310    -0.6570    23.1140 ca         1 NYR       0.154000
      8 CL          13.8050    -1.9220    23.9560 cl         1 NYR      -0.215000
      9 C9          13.4350     0.6360    23.1160 ca         1 NYR      -0.131000
     10 C11         11.7550    -0.9840    22.4640 ca         1 NYR      -0.168000
     11 N2           9.8560    -0.3850    21.1530 ns         1 NYR      -0.157000
     12 O            9.1870     1.5060    20.0570 o          1 NYR      -0.563100
     13 C3           6.9690     0.1950    18.8570 cc         1 NYR      -0.203300
     14 C1           5.9810     1.1830    19.0960 cc         1 NYR       0.284300
     15 C            5.5690     1.7590    20.4080 c3         1 NYR      -0.124400
     16 C2           6.9650     0.0180    17.4880 cd         1 NYR      -0.143000
     17 N            5.4160     1.5750    17.9530 nd         1 NYR      -0.520800
     18 H1           5.7600     0.9700    16.0280 hn         1 NYR       0.374000
     19 H2           7.2420    -0.7660    20.7450 hc         1 NYR       0.061700
     20 H3           8.2110    -1.4340    19.4530 hc         1 NYR       0.061700
     21 H4          10.9900     2.0940    21.2560 ha         1 NYR       0.154000
     22 H5          13.0900     2.6310    22.4280 ha         1 NYR       0.121000
     23 H6          14.3570     0.8690    23.6300 ha         1 NYR       0.132000
     24 H7          11.3870    -2.0020    22.4770 ha         1 NYR       0.124000
     25 H8           9.6030    -1.3530    21.2940 hn         1 NYR       0.148000
     26 H9           4.7130     2.4210    20.2820 hc         1 NYR       0.050700
     27 H10          5.2970     0.9700    21.1140 hc         1 NYR       0.050700
     28 H11          6.3840     2.3290    20.8600 hc         1 NYR       0.050700
     29 H12          7.5430    -0.6330    16.8530 h4         1 NYR       0.152000
@<TRIPOS>BOND
     1     1    16 1   
     2     1    17 1   
     3     1    18 1   
     4     2     3 1   
     5     2    13 1   
     6     2    19 1   
     7     2    20 1   
     8     3    11 1   
     9     3    12 2   
    10     4     5 ar  
    11     4    10 ar  
    12     4    11 1   
    13     5     6 ar  
    14     5    21 1   
    15     6     9 ar  
    16     6    22 1   
    17     7     8 1   
    18     7     9 ar  
    19     7    10 ar  
    20     9    23 1   
    21    10    24 1   
    22    11    25 1   
    23    13    14 1   
    24    13    16 2   
    25    14    15 1   
    26    14    17 2   
    27    15    26 1   
    28    15    27 1   
    29    15    28 1   
    30    16    29 1   
@<TRIPOS>SUBSTRUCTURE
     1 NYR         1 TEMP              0 ****  ****    0 ROOT
