@<TRIPOS>MOLECULE
NYS
   34    34     1     0     0
SMALL
bcc


@<TRIPOS>ATOM
      1 N           23.0840     0.1260    -3.5820 n8         1 NYS      -0.892800
      2 CA          21.9020    -0.6660    -3.8960 c3         1 NYS       0.016500
      3 CB          20.6950     0.0710    -3.3120 c3         1 NYS       0.044700
      4 C           21.6690    -0.9410    -5.4030 c          1 NYS       0.903600
      5 O           22.1270    -0.1050    -6.2060 o          1 NYS      -0.826800
      6 SG          19.1410    -0.8630    -3.5490 ss         1 NYS      -0.212000
      7 CXP         18.1170    -0.0290    -2.3680 ca         1 NYS      -0.012100
      8 CXH         17.8330    -0.6420    -1.1480 ca         1 NYS      -0.077000
      9 CXQ         17.5720     1.2180    -2.6590 ca         1 NYS       0.162100
     10 OXF         17.8540     1.8140    -3.8330 oh         1 NYS      -0.456100
     11 CXO         16.7450     1.8360    -1.7090 ca         1 NYS       0.013100
     12 OXE         16.2620     3.0510    -2.0590 oh         1 NYS      -0.525100
     13 CXG         16.4650     1.2120    -0.5070 ca         1 NYS      -0.144000
     14 CXN         17.0090    -0.0380    -0.2120 ca         1 NYS      -0.112300
     15 CXJ         16.6690    -0.7470     1.0700 c3         1 NYS       0.163400
     16 OXG         16.5930     0.2090     2.1030 oh         1 NYS      -0.592800
     17 CXI         15.3580    -1.5330     0.9070 c3         1 NYS       0.109800
     18 NXA         14.9260    -2.3080     2.0550 n8         1 NYS      -0.900800
     19 OXT         21.0020    -1.9600    -5.6730 o          1 NYS      -0.826800
     20 HN1         23.9050    -0.4510    -3.7210 hn         1 NYS       0.330800
     21 HN2         23.1570     0.8540    -4.2850 hn         1 NYS       0.330800
     22 HA          21.9890    -1.6240    -3.3760 h1         1 NYS       0.044700
     23 HB1         20.5980     1.0570    -3.7720 h1         1 NYS       0.049200
     24 HB2         20.8400     0.2070    -2.2400 h1         1 NYS       0.049200
     25 HXH         18.2770    -1.6070    -0.9360 ha         1 NYS       0.144000
     26 HOXF        17.4060     2.6670    -3.8890 ho         1 NYS       0.431000
     27 HOXE        15.6870     3.4060    -1.3710 ho         1 NYS       0.425000
     28 HXG         15.8220     1.7130     0.2080 ha         1 NYS       0.130000
     29 HXJ         17.4650    -1.4790     1.2790 h1         1 NYS       0.033700
     30 HOXG        16.3910    -0.2470     2.9270 ho         1 NYS       0.389000
     31 HXI1        14.5570    -0.8370     0.6380 h1         1 NYS       0.068200
     32 HXI2        15.4800    -2.2090     0.0560 h1         1 NYS       0.068200
     33 HXA1        15.6710    -2.9120     2.3790 hn         1 NYS       0.336300
     34 HXA2        14.6720    -1.7100     2.8300 hn         1 NYS       0.336300
@<TRIPOS>BOND
     1     1     2 1   
     2     1    20 1   
     3     1    21 1   
     4     2     3 1   
     5     2     4 1   
     6     2    22 1   
     7     3     6 1   
     8     3    23 1   
     9     3    24 1   
    10     4     5 1   
    11     4    19 1   
    12     6     7 1   
    13     7     8 ar  
    14     7     9 ar  
    15     8    14 ar  
    16     8    25 1   
    17     9    10 1   
    18     9    11 ar  
    19    10    26 1   
    20    11    12 1   
    21    11    13 ar  
    22    12    27 1   
    23    13    14 ar  
    24    13    28 1   
    25    14    15 1   
    26    15    16 1   
    27    15    17 1   
    28    15    29 1   
    29    16    30 1   
    30    17    18 1   
    31    17    31 1   
    32    17    32 1   
    33    18    33 1   
    34    18    34 1   
@<TRIPOS>SUBSTRUCTURE
     1 NYS         1 TEMP              0 ****  ****    0 ROOT
