@<TRIPOS>MOLECULE
NYS
   34    34     1     0     0
SMALL
No Charge or Current Charge


@<TRIPOS>ATOM
      1 N           23.3630     0.2670    -3.8230 n8         1 NYS      -1.003200
      2 CA          22.1040    -0.5420    -4.0530 c3         1 NYS       0.016500
      3 CB          20.8990     0.0840    -3.3050 c3         1 NYS       0.092600
      4 C           21.7280    -0.8170    -5.5630 c          1 NYS       0.693000
      5 O           21.5650     0.1440    -6.3040 o          1 NYS      -0.721500
      6 SG          19.4410    -1.0540    -3.3030 ss         1 NYS      -0.133000
      7 CXP         18.2500    -0.2070    -2.2630 ca         1 NYS      -0.139000
      8 CXH         17.8430    -0.8240    -1.0660 ca         1 NYS      -0.059000
      9 CXQ         17.7060     1.0460    -2.6150 ca         1 NYS       0.162100
     10 OXF         18.0500     1.6690    -3.7790 oh         1 NYS      -0.495100
     11 CXO         16.7720     1.6770    -1.7690 ca         1 NYS       0.013100
     12 OXE         16.2460     2.8960    -2.1160 oh         1 NYS      -0.564100
     13 CXG         16.3770     1.0570    -0.5710 ca         1 NYS      -0.126000
     14 CXN         16.9080    -0.2010    -0.2130 ca         1 NYS      -0.112300
     15 CXJ         16.4770    -0.8930     1.0820 c3         1 NYS       0.186600
     16 OXG         16.7930    -0.0590     2.2080 oh         1 NYS      -0.655000
     17 CXI         14.9560    -1.2510     1.0730 c3         1 NYS       0.109800
     18 NXA         14.4710    -1.9140     2.3210 n8         1 NYS      -1.011200
     19 OXT         21.7640    -1.9720    -5.9670 o          1 NYS      -0.721500
     20 HN1         24.1560    -0.2130    -4.2670 hn         1 NYS       0.386000
     21 HN2         23.2920     1.1410    -4.3600 hn         1 NYS       0.386000
     22 HA          22.2820    -1.5240    -3.5940 h1         1 NYS       0.044700
     23 HB1         20.6200     1.0350    -3.7740 h1         1 NYS       0.049200
     24 HB2         21.1760     0.2800    -2.2620 h1         1 NYS       0.049200
     25 HXH         18.2580    -1.7940    -0.7980 ha         1 NYS       0.126000
     26 HOXF        17.5310     2.5030    -3.7900 ho         1 NYS       0.470000
     27 HOXE        15.6220     3.1870    -1.4140 ho         1 NYS       0.464000
     28 HXG         15.6600     1.5460     0.0840 ha         1 NYS       0.112000
     29 HXJ         17.0370    -1.8350     1.1670 h1         1 NYS       0.033700
     30 HOXG        16.7860    -0.6380     2.9990 ho         1 NYS       0.428000
     31 HXI1        14.3670    -0.3380     0.9060 h1         1 NYS       0.068200
     32 HXI2        14.7660    -1.9220     0.2220 h1         1 NYS       0.068200
     33 HXA1        15.0670    -2.7230     2.5370 hn         1 NYS       0.391500
     34 HXA2        14.6070    -1.2800     3.1170 hn         1 NYS       0.391500
@<TRIPOS>BOND
     1     1     2 1   
     2     1    20 1   
     3     1    21 1   
     4     2     3 1   
     5     2     4 1   
     6     2    22 1   
     7     3     6 1   
     8     3    23 1   
     9     3    24 1   
    10     4     5 1   
    11     4    19 1   
    12     6     7 1   
    13     7     8 ar  
    14     7     9 ar  
    15     8    14 ar  
    16     8    25 1   
    17     9    10 1   
    18     9    11 ar  
    19    10    26 1   
    20    11    12 1   
    21    11    13 ar  
    22    12    27 1   
    23    13    14 ar  
    24    13    28 1   
    25    14    15 1   
    26    15    16 1   
    27    15    17 1   
    28    15    29 1   
    29    16    30 1   
    30    17    18 1   
    31    17    31 1   
    32    17    32 1   
    33    18    33 1   
    34    18    34 1   
@<TRIPOS>SUBSTRUCTURE
     1 NYS         1 TEMP              0 ****  ****    0 ROOT
