@<TRIPOS>MOLECULE
NYU
   69    73     1     0     0
SMALL
No Charge or Current Charge


@<TRIPOS>ATOM
      1 CAA         -4.1750   -34.8240   -58.9090 ca         1 NYU      -0.068000
      2 CAB         -5.5110   -34.9570   -59.3200 ca         1 NYU      -0.144000
      3 CAC         -6.3500   -33.8380   -59.3550 ca         1 NYU       0.138100
      4 CAD         -5.8590   -32.5840   -58.9720 ca         1 NYU      -0.208000
      5 CAE         -4.5220   -32.4360   -58.5540 ca         1 NYU      -0.035300
      6 CAF         -3.6550   -33.5620   -58.5360 ca         1 NYU      -0.100300
      7 CAG         -4.0430   -31.0370   -58.1500 c6         1 NYU      -0.034100
      8 CAH         -2.7160   -31.0320   -57.3660 c6         1 NYU      -0.070400
      9 CAI         -1.6770   -31.9320   -58.0710 c6         1 NYU      -0.044700
     10 CAJ         -2.1820   -33.4180   -58.0700 c6         1 NYU       0.000600
     11 CAK         -0.2810   -31.8660   -57.3950 c5         1 NYU      -0.067700
     12 CAL          0.7820   -32.7450   -58.1170 c5         1 NYU      -0.035000
     13 CAM          0.2840   -34.2210   -58.1180 c6         1 NYU      -0.055400
     14 CAN         -1.1460   -34.4070   -58.7410 c6         1 NYU       0.003600
     15 CAO          0.4460   -30.4960   -57.2920 c5         1 NYU      -0.064400
     16 CAP          1.9230   -30.9010   -56.9480 c5         1 NYU      -0.116400
     17 CAQ          1.9800   -32.4620   -57.1030 c5         1 NYU       0.169300
     18 CAS          1.1480   -32.3220   -59.5840 c3         1 NYU      -0.072100
     19 CAU         -1.1380   -34.4950   -60.2920 ca         1 NYU      -0.101300
     20 CAV         -1.8580   -33.6110   -61.1300 ca         1 NYU      -0.071000
     21 CAW         -1.8130   -33.7520   -62.5270 ca         1 NYU      -0.173000
     22 CAX         -1.0620   -34.7770   -63.1180 ca         1 NYU       0.142100
     23 CAY         -0.3520   -35.6740   -62.2960 ca         1 NYU      -0.173000
     24 CAZ         -0.3960   -35.5320   -60.8980 ca         1 NYU      -0.071000
     25 CBB         -0.3300   -35.8910   -65.1980 c3         1 NYU       0.161600
     26 CBC         -0.5390   -35.7150   -66.7280 c3         1 NYU       0.165800
     27 CBE         -3.0360   -35.6950   -66.7170 c3         1 NYU       0.150100
     28 CBF         -1.8130   -36.2210   -68.7800 c3         1 NYU       0.150100
     29 NBD         -1.8020   -36.2740   -67.3000 n3         1 NYU      -0.714600
     30 OAR         -7.6450   -33.9730   -59.7560 oh         1 NYU      -0.534100
     31 OAT          3.3010   -32.9070   -57.5000 oh         1 NYU      -0.650000
     32 OBA         -1.0590   -34.8640   -64.4950 os         1 NYU      -0.353100
     33 H1          -3.5550   -35.7140   -58.8850 ha         1 NYU       0.115000
     34 H2          -5.8950   -35.9320   -59.6090 ha         1 NYU       0.128000
     35 H3          -6.5120   -31.7150   -58.9960 ha         1 NYU       0.108000
     36 H4          -3.9250   -30.4330   -59.0600 hc         1 NYU       0.048200
     37 H5          -4.8160   -30.5350   -57.5510 hc         1 NYU       0.048200
     38 H6          -2.8870   -31.3850   -56.3400 hc         1 NYU       0.043700
     39 H7          -2.3490   -30.0000   -57.2870 hc         1 NYU       0.043700
     40 H8          -1.5760   -31.5720   -59.1010 hc         1 NYU       0.060700
     41 H9          -2.2100   -33.7180   -57.0120 hc         1 NYU       0.048700
     42 H10         -0.4580   -32.2410   -56.3770 hc         1 NYU       0.040700
     43 H11          0.2480   -34.5750   -57.0790 hc         1 NYU       0.044700
     44 H12          1.0210   -34.8680   -58.6120 hc         1 NYU       0.044700
     45 H13         -1.4410   -35.4110   -58.4120 hc         1 NYU       0.046700
     46 H14          0.3900   -29.9340   -58.2320 hc         1 NYU       0.044700
     47 H15          0.0080   -29.8570   -56.5170 hc         1 NYU       0.044700
     48 H16          2.1960   -30.6010   -55.9300 hc         1 NYU       0.046200
     49 H17          2.6260   -30.3960   -57.6210 hc         1 NYU       0.046200
     50 H18          1.7380   -32.9190   -56.1330 h1         1 NYU       0.024700
     51 H19          1.6730   -31.3620   -59.6310 hc         1 NYU       0.038700
     52 H20          1.8110   -33.0600   -60.0490 hc         1 NYU       0.038700
     53 H21          0.2710   -32.2240   -60.2280 hc         1 NYU       0.038700
     54 H22         -2.4570   -32.8050   -60.7210 ha         1 NYU       0.113000
     55 H23         -2.3680   -33.0620   -63.1570 ha         1 NYU       0.119000
     56 H24          0.2340   -36.4840   -62.7180 ha         1 NYU       0.119000
     57 H25          0.1500   -36.2430   -60.2810 ha         1 NYU       0.113000
     58 H26         -0.6610   -36.8930   -64.8960 h1         1 NYU       0.042200
     59 H27          0.7420   -35.8020   -64.9810 h1         1 NYU       0.042200
     60 H28          0.3120   -36.2080   -67.2170 h1         1 NYU       0.041200
     61 H29         -0.4560   -34.6460   -66.9680 h1         1 NYU       0.041200
     62 H30         -3.1030   -35.9060   -65.6420 h1         1 NYU       0.032533
     63 H31         -3.0650   -34.6070   -66.8610 h1         1 NYU       0.032533
     64 H32         -3.9280   -36.1270   -67.1900 h1         1 NYU       0.032533
     65 H33         -0.9330   -36.7320   -69.1940 h1         1 NYU       0.032533
     66 H34         -2.7080   -36.7150   -69.1800 h1         1 NYU       0.032533
     67 H35         -1.8060   -35.1810   -69.1340 h1         1 NYU       0.032533
     68 H37         -8.0730   -33.0910   -59.7140 ho         1 NYU       0.462000
     69 H38          3.9190   -32.6150   -56.7960 ho         1 NYU       0.440000
@<TRIPOS>BOND
     1     1     2 ar  
     2     1     6 ar  
     3     1    33 1   
     4     2     3 ar  
     5     2    34 1   
     6     3     4 ar  
     7     3    30 1   
     8     4     5 ar  
     9     4    35 1   
    10     5     6 ar  
    11     5     7 1   
    12     6    10 1   
    13     7     8 1   
    14     7    36 1   
    15     7    37 1   
    16     8     9 1   
    17     8    38 1   
    18     8    39 1   
    19     9    10 1   
    20     9    11 1   
    21     9    40 1   
    22    10    14 1   
    23    10    41 1   
    24    11    12 1   
    25    11    15 1   
    26    11    42 1   
    27    12    13 1   
    28    12    17 1   
    29    12    18 1   
    30    13    14 1   
    31    13    43 1   
    32    13    44 1   
    33    14    19 1   
    34    14    45 1   
    35    15    16 1   
    36    15    46 1   
    37    15    47 1   
    38    16    17 1   
    39    16    48 1   
    40    16    49 1   
    41    17    31 1   
    42    17    50 1   
    43    18    51 1   
    44    18    52 1   
    45    18    53 1   
    46    19    20 ar  
    47    19    24 ar  
    48    20    21 ar  
    49    20    54 1   
    50    21    22 ar  
    51    21    55 1   
    52    22    23 ar  
    53    22    32 1   
    54    23    24 ar  
    55    23    56 1   
    56    24    57 1   
    57    25    26 1   
    58    25    32 1   
    59    25    58 1   
    60    25    59 1   
    61    26    29 1   
    62    26    60 1   
    63    26    61 1   
    64    27    29 1   
    65    27    62 1   
    66    27    63 1   
    67    27    64 1   
    68    28    29 1   
    69    28    65 1   
    70    28    66 1   
    71    28    67 1   
    72    30    68 1   
    73    31    69 1   
@<TRIPOS>SUBSTRUCTURE
     1 NYU         1 TEMP              0 ****  ****    0 ROOT
