@<TRIPOS>MOLECULE
NYU
   69    73     1     0     0
SMALL
bcc


@<TRIPOS>ATOM
      1 CAA         -4.1780   -34.8040   -58.7250 ca         1 NYU      -0.086000
      2 CAB         -5.5170   -34.9900   -59.0180 ca         1 NYU      -0.162000
      3 CAC         -6.3690   -33.8890   -59.0580 ca         1 NYU       0.138100
      4 CAD         -5.8500   -32.6290   -58.7990 ca         1 NYU      -0.226000
      5 CAE         -4.4990   -32.4460   -58.5060 ca         1 NYU      -0.035300
      6 CAF         -3.6350   -33.5440   -58.4700 ca         1 NYU      -0.100300
      7 CAG         -4.0040   -31.0470   -58.2470 c6         1 NYU      -0.034100
      8 CAH         -2.6890   -31.0210   -57.4850 c6         1 NYU      -0.070400
      9 CAI         -1.6750   -31.9330   -58.1590 c6         1 NYU      -0.044700
     10 CAJ         -2.1740   -33.3880   -58.0880 c6         1 NYU       0.000600
     11 CAK         -0.3030   -31.8860   -57.5130 c5         1 NYU      -0.067700
     12 CAL          0.7210   -32.7870   -58.2160 c5         1 NYU      -0.035000
     13 CAM          0.2090   -34.2230   -58.1730 c6         1 NYU      -0.055400
     14 CAN         -1.2160   -34.4020   -58.7500 c6         1 NYU       0.003600
     15 CAO          0.4280   -30.5530   -57.3500 c5         1 NYU      -0.064400
     16 CAP          1.8970   -30.9770   -57.1130 c5         1 NYU      -0.116400
     17 CAQ          1.9370   -32.5100   -57.3260 c5         1 NYU       0.146100
     18 CAS          1.0310   -32.3370   -59.6500 c3         1 NYU      -0.072100
     19 CAU         -1.2420   -34.4900   -60.2660 ca         1 NYU      -0.101300
     20 CAV         -1.9210   -33.6110   -61.1090 ca         1 NYU      -0.089000
     21 CAW         -1.8690   -33.7350   -62.4870 ca         1 NYU      -0.191000
     22 CAX         -1.1370   -34.7620   -63.0810 ca         1 NYU       0.142100
     23 CAY         -0.4800   -35.6740   -62.2600 ca         1 NYU      -0.191000
     24 CAZ         -0.5450   -35.5260   -60.8800 ca         1 NYU      -0.089000
     25 CBB         -0.3980   -35.8230   -65.0790 c3         1 NYU       0.138400
     26 CBC         -0.4760   -35.6560   -66.5830 c3         1 NYU       0.165800
     27 CBE         -2.8730   -35.4260   -66.8790 c3         1 NYU       0.150100
     28 CBF         -1.5080   -36.2620   -68.6390 c3         1 NYU       0.150100
     29 NBD         -1.6790   -36.1800   -67.2030 n3         1 NYU      -0.714600
     30 OAR         -7.6710   -34.1040   -59.3410 oh         1 NYU      -0.495100
     31 OAT          3.1280   -32.9980   -57.8930 oh         1 NYU      -0.587800
     32 OBA         -1.1220   -34.7920   -64.4300 os         1 NYU      -0.329900
     33 H1          -3.5430   -35.6810   -58.6960 ha         1 NYU       0.133000
     34 H2          -5.9020   -35.9840   -59.2110 ha         1 NYU       0.146000
     35 H3          -6.5060   -31.7630   -58.8160 ha         1 NYU       0.126000
     36 H4          -3.8690   -30.5390   -59.2090 hc         1 NYU       0.048200
     37 H5          -4.7710   -30.4800   -57.7150 hc         1 NYU       0.048200
     38 H6          -2.8450   -31.3450   -56.4500 hc         1 NYU       0.043700
     39 H7          -2.3150   -29.9960   -57.4410 hc         1 NYU       0.043700
     40 H8          -1.5890   -31.6050   -59.2020 hc         1 NYU       0.060700
     41 H9          -2.1200   -33.6420   -57.0180 hc         1 NYU       0.048700
     42 H10         -0.4310   -32.2960   -56.4980 hc         1 NYU       0.040700
     43 H11          0.1760   -34.5400   -57.1250 hc         1 NYU       0.044700
     44 H12          0.9000   -34.9050   -58.6750 hc         1 NYU       0.044700
     45 H13         -1.5260   -35.3920   -58.3970 hc         1 NYU       0.046700
     46 H14          0.3360   -29.9430   -58.2520 hc         1 NYU       0.044700
     47 H15          0.0270   -29.9620   -56.5260 hc         1 NYU       0.044700
     48 H16          2.2430   -30.7120   -56.1120 hc         1 NYU       0.046200
     49 H17          2.5710   -30.4850   -57.8170 hc         1 NYU       0.046200
     50 H18          1.7590   -32.9990   -56.3550 h1         1 NYU       0.024700
     51 H19          1.5470   -31.3760   -59.6810 hc         1 NYU       0.038700
     52 H20          1.6750   -33.0630   -60.1480 hc         1 NYU       0.038700
     53 H21          0.1360   -32.2420   -60.2580 hc         1 NYU       0.038700
     54 H22         -2.5070   -32.7980   -60.7040 ha         1 NYU       0.131000
     55 H23         -2.4000   -33.0280   -63.1140 ha         1 NYU       0.137000
     56 H24          0.0860   -36.5000   -62.6670 ha         1 NYU       0.137000
     57 H25         -0.0240   -36.2540   -60.2680 ha         1 NYU       0.131000
     58 H26         -0.7810   -36.8100   -64.7960 h1         1 NYU       0.042200
     59 H27          0.6560   -35.7770   -64.7790 h1         1 NYU       0.042200
     60 H28          0.3690   -36.2150   -66.9910 h1         1 NYU       0.041200
     61 H29         -0.2960   -34.5970   -66.8400 h1         1 NYU       0.041200
     62 H30         -3.0930   -35.4730   -65.8150 h1         1 NYU       0.032533
     63 H31         -2.8030   -34.3650   -67.1650 h1         1 NYU       0.032533
     64 H32         -3.7250   -35.8550   -67.4070 h1         1 NYU       0.032533
     65 H33         -0.6490   -36.8890   -68.8820 h1         1 NYU       0.032533
     66 H34         -2.3890   -36.7150   -69.0940 h1         1 NYU       0.032533
     67 H35         -1.3520   -35.2820   -69.1170 h1         1 NYU       0.032533
     68 H37         -8.1560   -33.2710   -59.3410 ho         1 NYU       0.423000
     69 H38          3.8510   -32.8070   -57.2890 ho         1 NYU       0.401000
@<TRIPOS>BOND
     1     1     2 ar  
     2     1     6 ar  
     3     1    33 1   
     4     2     3 ar  
     5     2    34 1   
     6     3     4 ar  
     7     3    30 1   
     8     4     5 ar  
     9     4    35 1   
    10     5     6 ar  
    11     5     7 1   
    12     6    10 1   
    13     7     8 1   
    14     7    36 1   
    15     7    37 1   
    16     8     9 1   
    17     8    38 1   
    18     8    39 1   
    19     9    10 1   
    20     9    11 1   
    21     9    40 1   
    22    10    14 1   
    23    10    41 1   
    24    11    12 1   
    25    11    15 1   
    26    11    42 1   
    27    12    13 1   
    28    12    17 1   
    29    12    18 1   
    30    13    14 1   
    31    13    43 1   
    32    13    44 1   
    33    14    19 1   
    34    14    45 1   
    35    15    16 1   
    36    15    46 1   
    37    15    47 1   
    38    16    17 1   
    39    16    48 1   
    40    16    49 1   
    41    17    31 1   
    42    17    50 1   
    43    18    51 1   
    44    18    52 1   
    45    18    53 1   
    46    19    20 ar  
    47    19    24 ar  
    48    20    21 ar  
    49    20    54 1   
    50    21    22 ar  
    51    21    55 1   
    52    22    23 ar  
    53    22    32 1   
    54    23    24 ar  
    55    23    56 1   
    56    24    57 1   
    57    25    26 1   
    58    25    32 1   
    59    25    58 1   
    60    25    59 1   
    61    26    29 1   
    62    26    60 1   
    63    26    61 1   
    64    27    29 1   
    65    27    62 1   
    66    27    63 1   
    67    27    64 1   
    68    28    29 1   
    69    28    65 1   
    70    28    66 1   
    71    28    67 1   
    72    30    68 1   
    73    31    69 1   
@<TRIPOS>SUBSTRUCTURE
     1 NYU         1 TEMP              0 ****  ****    0 ROOT
