@<TRIPOS>MOLECULE
NYV
   23    23     1     0     0
SMALL
No Charge or Current Charge


@<TRIPOS>ATOM
      1 N1          22.9470    11.7120     3.6420 na         1 NYV      -0.166500
      2 N3          26.2670    14.4720     5.4020 n8         1 NYV      -1.037100
      3 C4          22.5150    11.8090     4.9490 cc         1 NYV       0.390400
      4 C5          24.6240    12.3300     4.9260 cd         1 NYV       0.014900
      5 C6          24.2870    12.0440     3.6220 cc         1 NYV      -0.093000
      6 C1          22.6220    10.0170     1.8370 c3         1 NYV      -0.107600
      7 C2          22.1200    11.3250     2.4850 c3         1 NYV       0.082300
      8 C3          22.0070    12.4700     1.4560 c3         1 NYV      -0.107600
      9 N2          23.5040    12.1800     5.7490 nd         1 NYV      -0.597000
     10 O1          26.5380    12.5620     6.8640 o          1 NYV      -0.560500
     11 O2          27.2960    12.5040     4.4230 o          1 NYV      -0.560500
     12 S1          26.3040    12.8370     5.4460 sy         1 NYV       1.154200
     13 H1          26.4520    14.6690     6.3830 hn         1 NYV       0.484500
     14 H2          27.1700    14.6560     4.9710 hn         1 NYV       0.484500
     15 H3          21.4930    11.6000     5.2430 h5         1 NYV       0.059100
     16 H4          24.8870    12.0550     2.7190 h4         1 NYV       0.177000
     17 H5          22.6580     9.2090     2.5780 hc         1 NYV       0.052533
     18 H6          21.9510     9.7040     1.0280 hc         1 NYV       0.052533
     19 H7          23.6270    10.1450     1.4190 hc         1 NYV       0.052533
     20 H8          21.1070    11.1290     2.8620 h1         1 NYV       0.065700
     21 H9          21.6130    13.3760     1.9310 hc         1 NYV       0.052533
     22 H10         22.9850    12.7060     1.0210 hc         1 NYV       0.052533
     23 H11         21.3270    12.1910     0.6420 hc         1 NYV       0.052533
@<TRIPOS>BOND
     1     1     3 1   
     2     1     5 1   
     3     1     7 1   
     4     2    12 1   
     5     2    13 1   
     6     2    14 1   
     7     3     9 2   
     8     3    15 1   
     9     4     5 2   
    10     4     9 1   
    11     4    12 1   
    12     5    16 1   
    13     6     7 1   
    14     6    17 1   
    15     6    18 1   
    16     6    19 1   
    17     7     8 1   
    18     7    20 1   
    19     8    21 1   
    20     8    22 1   
    21     8    23 1   
    22    10    12 2   
    23    11    12 2   
@<TRIPOS>SUBSTRUCTURE
     1 NYV         1 TEMP              0 ****  ****    0 ROOT
