@<TRIPOS>MOLECULE
NYV
   23    23     1     0     0
SMALL
abcg2


@<TRIPOS>ATOM
      1 N1          23.0140    11.7730     3.5880 na         1 NYV      -0.166500
      2 N3          26.1870    14.4040     5.7300 n8         1 NYV      -1.037100
      3 C4          22.6550    11.9230     4.8930 cc         1 NYV       0.390400
      4 C5          24.7320    12.3650     4.7790 cd         1 NYV       0.014900
      5 C6          24.3490    12.0560     3.4980 cc         1 NYV      -0.093000
      6 C1          22.5280     9.9800     1.9690 c3         1 NYV      -0.107600
      7 C2          22.1210    11.3540     2.4900 c3         1 NYV       0.082300
      8 C3          22.0860    12.4150     1.3960 c3         1 NYV      -0.107600
      9 N2          23.6730    12.2810     5.6470 nd         1 NYV      -0.597000
     10 O1          26.6490    12.0420     6.4860 o          1 NYV      -0.560500
     11 O2          27.2000    12.7650     4.1580 o          1 NYV      -0.560500
     12 S1          26.3320    12.8220     5.3110 sy         1 NYV       1.154200
     13 H1          26.0900    14.5480     6.7280 hn         1 NYV       0.484500
     14 H2          26.9130    14.9770     5.3150 hn         1 NYV       0.484500
     15 H3          21.6430    11.7570     5.2290 h5         1 NYV       0.059100
     16 H4          24.8990    12.0160     2.5760 h4         1 NYV       0.177000
     17 H5          22.5420     9.2480     2.7770 hc         1 NYV       0.052533
     18 H6          21.8140     9.6520     1.2130 hc         1 NYV       0.052533
     19 H7          23.5190    10.0160     1.5120 hc         1 NYV       0.052533
     20 H8          21.1350    11.2840     2.9510 h1         1 NYV       0.065700
     21 H9          21.8030    13.3860     1.8040 hc         1 NYV       0.052533
     22 H10         23.0590    12.5080     0.9100 hc         1 NYV       0.052533
     23 H11         21.3550    12.1290     0.6390 hc         1 NYV       0.052533
@<TRIPOS>BOND
     1     1     3 1   
     2     1     5 1   
     3     1     7 1   
     4     2    12 1   
     5     2    13 1   
     6     2    14 1   
     7     3     9 2   
     8     3    15 1   
     9     4     5 2   
    10     4     9 1   
    11     4    12 1   
    12     5    16 1   
    13     6     7 1   
    14     6    17 1   
    15     6    18 1   
    16     6    19 1   
    17     7     8 1   
    18     7    20 1   
    19     8    21 1   
    20     8    22 1   
    21     8    23 1   
    22    10    12 2   
    23    11    12 2   
@<TRIPOS>SUBSTRUCTURE
     1 NYV         1 TEMP              0 ****  ****    0 ROOT
