@<TRIPOS>MOLECULE
NYW
   43    45     1     0     0
SMALL
bcc


@<TRIPOS>ATOM
      1 C6          -5.0010    -2.3870     0.0090 ca         1 NYW       0.794200
      2 C4          -3.8330    -0.3410    -0.2030 ca         1 NYW       0.489800
      3 C2          -5.7430    -0.6160    -1.2700 ca         1 NYW       0.922900
      4 PB           5.3320    -1.6680    -0.9990 p5         1 NYW       1.187700
      5 O1B          5.8930    -1.7990     0.4210 o          1 NYW      -0.955167
      6 O2B          5.9860    -0.5600    -1.8300 o          1 NYW      -0.955167
      7 O3B          5.2370    -3.0070    -1.7480 o          1 NYW      -0.955167
      8 PA           3.2740     0.1400     0.4660 p5         1 NYW       1.243600
      9 O1A          4.1650     1.3400     0.2620 o          1 NYW      -0.855000
     10 O2A          3.1410    -0.4230     1.8600 o          1 NYW      -0.855000
     11 C3A          3.5440    -1.1510    -0.7710 c3         1 NYW      -0.412800
     12 C5           1.0840     1.5810     0.7390 c3         1 NYW       0.207400
     13 C7           0.0590     2.2870    -0.1290 c5         1 NYW       0.124100
     14 O4          -0.8790     1.3510    -0.6740 os         1 NYW      -0.361600
     15 C3          -0.7770     3.2980     0.6420 c5         1 NYW       0.076100
     16 O3          -1.2420     4.2770    -0.2510 oh         1 NYW      -0.589800
     17 C9          -1.9270     2.4150     1.1310 c5         1 NYW       0.045100
     18 O2          -3.1150     3.0940     1.4170 oh         1 NYW      -0.596800
     19 C1          -2.1360     1.5000    -0.0770 c5         1 NYW       0.264800
     20 N9          -2.6680     0.2050     0.2570 na         1 NYW      -0.254000
     21 C8          -2.0770    -0.7540     1.0460 cc         1 NYW       0.454700
     22 N7          -2.7710    -1.8460     1.1290 nd         1 NYW      -0.572100
     23 C10         -3.8800    -1.6080     0.3540 ca         1 NYW      -0.253200
     24 N6          -5.1810    -3.6250     0.4800 nv         1 NYW      -0.970500
     25 N1          -5.9140    -1.8640    -0.8060 nb         1 NYW      -0.903000
     26 N3          -4.7270     0.2090    -1.0150 nb         1 NYW      -0.793000
     27 N2          -6.7390    -0.1390    -2.0570 nv         1 NYW      -0.959500
     28 H3A2         3.1470    -0.8210    -1.7360 hc         1 NYW       0.023700
     29 H3A1         2.9510    -2.0220    -0.4760 hc         1 NYW       0.023700
     30 H5'2         0.6000     1.1430     1.6240 h1         1 NYW      -0.001800
     31 H5'1         1.7810     2.3430     1.1110 h1         1 NYW      -0.001800
     32 H4           0.5790     2.7690    -0.9630 h1         1 NYW       0.108700
     33 H3          -0.2160     3.7410     1.4760 h1         1 NYW       0.056700
     34 HO3         -2.0250     4.6860     0.1360 ho         1 NYW       0.389000
     35 H2          -1.5840     1.8280     1.9920 h1         1 NYW       0.066700
     36 HO2         -3.0660     3.4410     2.3140 ho         1 NYW       0.395000
     37 H1          -2.8550     1.9530    -0.7690 h2         1 NYW       0.089700
     38 H8          -1.1230    -0.5870     1.5240 h5         1 NYW       0.110800
     39 HN61        -4.4650    -4.0740     1.0240 hn         1 NYW       0.438800
     40 HN62        -5.9340    -4.1920     0.1300 hn         1 NYW       0.438800
     41 H22         -7.3700    -0.8060    -2.4660 hn         1 NYW       0.415800
     42 H21         -6.5470     0.6800    -2.6070 hn         1 NYW       0.415800
     43 O5           1.7270     0.6010    -0.0250 os         1 NYW      -0.538200
@<TRIPOS>BOND
     1     1    23 ar  
     2     1    24 1   
     3     1    25 ar  
     4     2    20 1   
     5     2    23 ar  
     6     2    26 ar  
     7     3    25 ar  
     8     3    26 ar  
     9     3    27 1   
    10     4     5 1   
    11     4     6 1   
    12     4     7 1   
    13     4    11 1   
    14     8     9 1   
    15     8    10 1   
    16     8    11 1   
    17     8    43 1   
    18    11    28 1   
    19    11    29 1   
    20    12    13 1   
    21    12    30 1   
    22    12    31 1   
    23    12    43 1   
    24    13    14 1   
    25    13    15 1   
    26    13    32 1   
    27    14    19 1   
    28    15    16 1   
    29    15    17 1   
    30    15    33 1   
    31    16    34 1   
    32    17    18 1   
    33    17    19 1   
    34    17    35 1   
    35    18    36 1   
    36    19    20 1   
    37    19    37 1   
    38    20    21 1   
    39    21    22 2   
    40    21    38 1   
    41    22    23 1   
    42    24    39 1   
    43    24    40 1   
    44    27    41 1   
    45    27    42 1   
@<TRIPOS>SUBSTRUCTURE
     1 NYW         1 TEMP              0 ****  ****    0 ROOT
