@<TRIPOS>MOLECULE
NYW
   43    45     1     0     0
SMALL
No Charge or Current Charge


@<TRIPOS>ATOM
      1 C6          -4.4950    -2.4960    -0.0150 ca         1 NYW       0.465900
      2 C4          -3.3320    -0.4230    -0.1850 ca         1 NYW       0.161500
      3 C2          -4.7850    -1.1180    -1.7890 ca         1 NYW       0.396900
      4 PB           3.7580    -1.6950    -1.0350 p5         1 NYW       1.345500
      5 O1B          4.7180    -2.2260    -0.0280 o          1 NYW      -0.955167
      6 O2B          4.2390    -0.4290    -1.6490 o          1 NYW      -0.955167
      7 O3B          3.5880    -2.7290    -2.0930 o          1 NYW      -0.955167
      8 PA           2.1630    -0.0340     0.6560 p5         1 NYW       1.401400
      9 O1A          3.4290     0.2450     1.3970 o          1 NYW      -0.855000
     10 O2A          0.9960    -0.1180     1.5840 o          1 NYW      -0.855000
     11 C3A          2.1560    -1.5550    -0.2830 c3         1 NYW      -0.728400
     12 C5           1.5380     2.3850    -0.1780 c3         1 NYW       0.230600
     13 C7           0.0380     2.7090    -0.4940 c5         1 NYW       0.147300
     14 O4          -0.7750     1.5040    -0.6290 os         1 NYW      -0.408000
     15 C3          -0.6640     3.5930     0.6000 c5         1 NYW       0.099300
     16 O3          -1.6290     4.5010     0.0500 oh         1 NYW      -0.712000
     17 C9          -1.3780     2.4930     1.4330 c5         1 NYW       0.068300
     18 O2          -2.4100     3.0410     2.2810 oh         1 NYW      -0.719000
     19 C1          -1.9080     1.6130     0.2530 c5         1 NYW       0.317300
     20 N9          -2.4300     0.2820     0.5580 na         1 NYW      -0.283300
     21 C8          -2.1460    -0.4710     1.7030 cc         1 NYW       0.454700
     22 N7          -2.8490    -1.6250     1.7180 nd         1 NYW      -0.572100
     23 C10         -3.5800    -1.5700     0.5270 ca         1 NYW      -0.122600
     24 N6          -4.8100    -3.6640     0.6020 nv         1 NYW      -1.080900
     25 N1          -5.1030    -2.2740    -1.1870 nb         1 NYW      -0.377000
     26 N3          -3.9330    -0.1670    -1.3630 nb         1 NYW      -0.267000
     27 N2          -5.3990    -0.8920    -2.9710 nv         1 NYW      -1.069900
     28 H3A2         1.3710    -1.5120    -1.0430 hc         1 NYW       0.023700
     29 H3A1         1.9690    -2.4030     0.3790 hc         1 NYW       0.023700
     30 H5'2         1.7250     2.5680     0.8890 h1         1 NYW      -0.001800
     31 H5'1         2.1730     3.0850    -0.7360 h1         1 NYW      -0.001800
     32 H4           0.0270     3.2340    -1.4590 h1         1 NYW       0.108700
     33 H3           0.0690     4.1430     1.2080 h1         1 NYW       0.056700
     34 HO3         -2.3630     4.5090     0.7120 ho         1 NYW       0.488000
     35 H2          -0.6450     1.9330     2.0300 h1         1 NYW       0.066700
     36 HO2         -1.9890     3.2960     3.1370 ho         1 NYW       0.494000
     37 H1          -2.7190     2.1430    -0.2640 h2         1 NYW       0.089700
     38 H8          -1.4610    -0.1330     2.4720 h5         1 NYW       0.110800
     39 HN61        -4.1980    -3.9520     1.3620 hn         1 NYW       0.494000
     40 HN62        -5.2190    -4.4040     0.0400 hn         1 NYW       0.494000
     41 H22         -5.8720    -1.6700    -3.4220 hn         1 NYW       0.471000
     42 H21         -5.0380    -0.1570    -3.5740 hn         1 NYW       0.471000
     43 O5           1.8760     1.0330    -0.5210 os         1 NYW      -0.561400
@<TRIPOS>BOND
     1     1    23 ar  
     2     1    24 1   
     3     1    25 ar  
     4     2    20 1   
     5     2    23 ar  
     6     2    26 ar  
     7     3    25 ar  
     8     3    26 ar  
     9     3    27 1   
    10     4     5 1   
    11     4     6 1   
    12     4     7 1   
    13     4    11 1   
    14     8     9 1   
    15     8    10 1   
    16     8    11 1   
    17     8    43 1   
    18    11    28 1   
    19    11    29 1   
    20    12    13 1   
    21    12    30 1   
    22    12    31 1   
    23    12    43 1   
    24    13    14 1   
    25    13    15 1   
    26    13    32 1   
    27    14    19 1   
    28    15    16 1   
    29    15    17 1   
    30    15    33 1   
    31    16    34 1   
    32    17    18 1   
    33    17    19 1   
    34    17    35 1   
    35    18    36 1   
    36    19    20 1   
    37    19    37 1   
    38    20    21 1   
    39    21    22 2   
    40    21    38 1   
    41    22    23 1   
    42    24    39 1   
    43    24    40 1   
    44    27    41 1   
    45    27    42 1   
@<TRIPOS>SUBSTRUCTURE
     1 NYW         1 TEMP              0 ****  ****    0 ROOT
