@<TRIPOS>MOLECULE
NYX
   25    26     1     0     0
SMALL
No Charge or Current Charge


@<TRIPOS>ATOM
      1 C2           4.6730     6.5840    42.0700 c3         1 NYX       0.021600
      2 C3           5.3710     6.8040    43.4230 c          1 NYX       0.599100
      3 C6           7.1910     8.1240    44.5570 c3         1 NYX       0.151300
      4 C7           8.4990     7.3480    44.5660 ca         1 NYX      -0.156300
      5 C8           8.5660     6.0750    45.1950 ca         1 NYX      -0.055000
      6 C10         10.8840     5.9150    44.5810 ca         1 NYX      -0.034200
      7 C14         12.1450     7.3740    43.4560 cc         1 NYX       0.355800
      8 C15         10.8240     7.1300    43.9780 ca         1 NYX      -0.238900
      9 C16          9.6480     7.8900    43.9430 ca         1 NYX      -0.024000
     10 O4           5.0750     6.1920    44.4420 o          1 NYX      -0.574100
     11 N5           6.3670     7.7570    43.4050 ns         1 NYX      -0.508900
     12 C9           9.7730     5.3410    45.2080 ca         1 NYX      -0.131000
     13 N11         12.1730     5.4510    44.4310 na         1 NYX      -0.060400
     14 N13         12.9810     6.3560    43.7250 nd         1 NYX      -0.515100
     15 H18          4.2220     7.5300    41.7500 h1         1 NYX       0.078200
     16 H17          5.4270     6.2810    41.3330 h1         1 NYX       0.078200
     17 Cl1          3.3600     5.3110    42.0870 cl         1 NYX      -0.225000
     18 H21          7.4010     9.2010    44.5110 h1         1 NYX       0.064200
     19 H20          6.6380     7.9380    45.4880 h1         1 NYX       0.064200
     20 H22          7.6810     5.6570    45.6710 ha         1 NYX       0.131000
     21 H24         12.5440     8.2160    42.9050 h4         1 NYX       0.049800
     22 H25          9.6220     8.8610    43.4510 ha         1 NYX       0.115000
     23 H19          6.5520     8.2140    42.5200 hn         1 NYX       0.313500
     24 H23          9.8330     4.3660    45.6860 ha         1 NYX       0.124000
     25 H12         12.5370     4.5630    44.7750 hn         1 NYX       0.377000
@<TRIPOS>BOND
     1     1     2 1   
     2     1    15 1   
     3     1    16 1   
     4     1    17 1   
     5     2    10 2   
     6     2    11 1   
     7     3     4 1   
     8     3    11 1   
     9     3    18 1   
    10     3    19 1   
    11     4     5 ar  
    12     4     9 ar  
    13     5    12 ar  
    14     5    20 1   
    15     6     8 ar  
    16     6    12 ar  
    17     6    13 1   
    18     7     8 1   
    19     7    14 2   
    20     7    21 1   
    21     8     9 ar  
    22     9    22 1   
    23    11    23 1   
    24    12    24 1   
    25    13    14 1   
    26    13    25 1   
@<TRIPOS>SUBSTRUCTURE
     1 NYX         1 TEMP              0 ****  ****    0 ROOT
