@<TRIPOS>MOLECULE
NYX
   25    26     1     0     0
SMALL
bcc


@<TRIPOS>ATOM
      1 C2           4.5160     6.5460    42.2860 c3         1 NYX      -0.055000
      2 C3           5.3140     6.8810    43.5380 c          1 NYX       0.666100
      3 C6           7.2710     8.1630    44.3150 c3         1 NYX       0.151300
      4 C7           8.5640     7.3920    44.4000 ca         1 NYX      -0.156300
      5 C8           8.5450     6.0510    44.8570 ca         1 NYX      -0.073000
      6 C10         10.8810     5.8870    44.5360 ca         1 NYX      -0.034200
      7 C14         12.3030     7.4320    43.7910 cc         1 NYX       0.355800
      8 C15         10.9300     7.2160    44.0840 ca         1 NYX      -0.238900
      9 C16          9.7510     7.9730    44.0160 ca         1 NYX      -0.042000
     10 O4           4.9640     6.5210    44.6460 o          1 NYX      -0.574100
     11 N5           6.3870     7.6460    43.2880 ns         1 NYX      -0.575900
     12 C9           9.6810     5.2830    44.9320 ca         1 NYX      -0.149000
     13 N11         12.1520     5.4300    44.4810 na         1 NYX      -0.010100
     14 N13         13.0060     6.3540    44.0360 nd         1 NYX      -0.515100
     15 H18          3.7800     7.3310    42.1100 h1         1 NYX       0.078200
     16 H17          5.1450     6.4640    41.4020 h1         1 NYX       0.078200
     17 CL1          3.6400     5.0110    42.4840 cl         1 NYX      -0.148400
     18 H21          7.4780     9.2110    44.0960 h1         1 NYX       0.064200
     19 H20          6.7390     8.1350    45.2650 h1         1 NYX       0.064200
     20 H22          7.6000     5.6180    45.1610 ha         1 NYX       0.149000
     21 H24         12.7780     8.3250    43.4150 h4         1 NYX       0.049800
     22 H25          9.7740     8.9980    43.6630 ha         1 NYX       0.133000
     23 H19          6.6470     7.8320    42.3320 hn         1 NYX       0.313500
     24 H23          9.6480     4.2610    45.2850 ha         1 NYX       0.142000
     25 H12         12.4930     4.5180    44.7380 hn         1 NYX       0.326700
@<TRIPOS>BOND
     1     1     2 1   
     2     1    15 1   
     3     1    16 1   
     4     1    17 1   
     5     2    10 2   
     6     2    11 1   
     7     3     4 1   
     8     3    11 1   
     9     3    18 1   
    10     3    19 1   
    11     4     5 ar  
    12     4     9 ar  
    13     5    12 ar  
    14     5    20 1   
    15     6     8 ar  
    16     6    12 ar  
    17     6    13 1   
    18     7     8 1   
    19     7    14 2   
    20     7    21 1   
    21     8     9 ar  
    22     9    22 1   
    23    11    23 1   
    24    12    24 1   
    25    13    14 1   
    26    13    25 1   
@<TRIPOS>SUBSTRUCTURE
     1 NYX         1 TEMP              0 ****  ****    0 ROOT
