@<TRIPOS>MOLECULE
NYZ
   42    44     1     0     0
SMALL
No Charge or Current Charge


@<TRIPOS>ATOM
      1 C8           1.9730    -0.8030    -1.4550 cc         1 NYZ       0.496400
      2 C5           3.4760    -1.7700    -0.2540 cd         1 NYZ       0.022700
      3 C6           4.4740    -2.6090     0.3920 cd         1 NYZ       0.722200
      4 PB          -4.0070    -1.5760     1.0940 p5         1 NYZ       1.342500
      5 O1B         -4.9400    -2.1370     0.0780 o          1 NYZ      -0.952167
      6 O2B         -4.4740    -0.2640     1.6150 o          1 NYZ      -0.952167
      7 O3B         -3.9120    -2.5520     2.2160 o          1 NYZ      -0.952167
      8 PA          -2.2990    -0.0630    -0.6190 p5         1 NYZ       1.408400
      9 O1A         -3.5260     0.2110    -1.4260 o          1 NYZ      -0.853000
     10 O2A         -1.1000    -0.2360    -1.4930 o          1 NYZ      -0.853000
     11 C3A         -2.3730    -1.5240     0.4050 c3         1 NYZ      -0.724400
     12 C7          -1.6260     2.3810     0.0980 c3         1 NYZ       0.233600
     13 C4          -0.1090     2.6500     0.3840 c5         1 NYZ       0.144300
     14 O4           0.6410     1.4190     0.6130 os         1 NYZ      -0.398000
     15 C3           0.6370     3.4140    -0.7710 c5         1 NYZ       0.101300
     16 O3           1.6190     4.3390    -0.2870 oh         1 NYZ      -0.716000
     17 C2           1.3400     2.2300    -1.4910 c5         1 NYZ       0.060300
     18 O2           2.4140     2.6810    -2.3470 oh         1 NYZ      -0.733000
     19 C1           1.8070     1.4310    -0.2300 c5         1 NYZ       0.324300
     20 N9           2.3010     0.0660    -0.4170 na         1 NYZ      -0.220500
     21 N7           2.6850    -1.9380    -1.3810 nd         1 NYZ      -0.647000
     22 N6           4.8140    -3.8160    -0.0700 nv         1 NYZ      -1.030200
     23 N1           5.1390    -2.2430     1.4610 nc         1 NYZ      -0.835100
     24 C10          4.9000    -1.0160     2.0420 c          1 NYZ       0.729400
     25 N3           3.9610    -0.2090     1.4570 ns         1 NYZ      -0.510600
     26 C9           3.2600    -0.5710     0.3290 cc         1 NYZ       0.000600
     27 O            5.4990    -0.6600     3.0360 o          1 NYZ      -0.620000
     28 H8           1.2460    -0.5520    -2.2210 h5         1 NYZ       0.187100
     29 H3A2        -1.6190    -1.4580     1.1930 hc         1 NYZ       0.024200
     30 H3A1        -2.1840    -2.4150    -0.1990 hc         1 NYZ       0.024200
     31 H5'1        -1.8170     2.5250    -0.9740 h1         1 NYZ       0.004200
     32 H5'2        -2.2210     3.1330     0.6300 h1         1 NYZ       0.004200
     33 H4          -0.0640     3.2440     1.3070 h1         1 NYZ       0.096700
     34 H3          -0.0690     3.9270    -1.4400 h1         1 NYZ       0.053700
     35 HO3          2.3740     4.2390    -0.9180 ho         1 NYZ       0.492000
     36 H2           0.6050     1.6470    -2.0640 h1         1 NYZ       0.084700
     37 HO2          2.0260     2.8930    -3.2310 ho         1 NYZ       0.505000
     38 H1           2.6130     1.9770     0.2760 h2         1 NYZ       0.057700
     39 H61          4.5710    -3.9880    -1.0390 hn         1 NYZ       0.500500
     40 H62          5.7180    -4.1460     0.2360 hn         1 NYZ       0.500500
     41 H7           3.8080     0.6780     1.9230 hn         1 NYZ       0.444000
     42 O5          -2.0220     1.0620     0.5040 os         1 NYZ      -0.568400
@<TRIPOS>BOND
     1     1    20 1   
     2     1    21 2   
     3     1    28 1   
     4     2     3 1   
     5     2    21 1   
     6     2    26 2   
     7     3    22 1   
     8     3    23 2   
     9     4     5 1   
    10     4     6 1   
    11     4     7 1   
    12     4    11 1   
    13     8     9 1   
    14     8    10 1   
    15     8    11 1   
    16     8    42 1   
    17    11    29 1   
    18    11    30 1   
    19    12    13 1   
    20    12    31 1   
    21    12    32 1   
    22    12    42 1   
    23    13    14 1   
    24    13    15 1   
    25    13    33 1   
    26    14    19 1   
    27    15    16 1   
    28    15    17 1   
    29    15    34 1   
    30    16    35 1   
    31    17    18 1   
    32    17    19 1   
    33    17    36 1   
    34    18    37 1   
    35    19    20 1   
    36    19    38 1   
    37    20    26 1   
    38    22    39 1   
    39    22    40 1   
    40    23    24 1   
    41    24    25 1   
    42    24    27 2   
    43    25    26 1   
    44    25    41 1   
@<TRIPOS>SUBSTRUCTURE
     1 NYZ         1 TEMP              0 ****  ****    0 ROOT
