@<TRIPOS>MOLECULE
NYZ
   42    44     1     0     0
SMALL
abcg2


@<TRIPOS>ATOM
      1 C8           1.5510    -1.0320    -0.1440 cc         1 NYZ       0.496400
      2 C5           3.5500    -1.7200    -0.3260 cd         1 NYZ       0.022700
      3 C6           4.7760    -2.4100    -0.5320 cd         1 NYZ       0.722200
      4 PB          -5.1710    -1.9860     0.2750 p5         1 NYZ       1.342500
      5 O1B         -4.4180    -3.0720    -0.5010 o          1 NYZ      -0.952167
      6 O2B         -6.1700    -1.1890    -0.5690 o          1 NYZ      -0.952167
      7 O3B         -5.7600    -2.4800     1.6050 o          1 NYZ      -0.952167
      8 PA          -2.6720    -0.2880    -0.4800 p5         1 NYZ       1.408400
      9 O1A         -3.3260     0.1700    -1.7580 o          1 NYZ      -0.853000
     10 O2A         -1.5350    -1.2830    -0.5830 o          1 NYZ      -0.853000
     11 C3A         -3.8570    -0.7540     0.8010 c3         1 NYZ      -0.724400
     12 C7          -1.1350     1.8710    -0.4340 c3         1 NYZ       0.233600
     13 C4          -0.1050     2.4090     0.5410 c5         1 NYZ       0.144300
     14 O4           0.6640     1.3350     1.1080 os         1 NYZ      -0.398000
     15 C3           0.9120     3.3450    -0.0980 c5         1 NYZ       0.101300
     16 O3           1.4040     4.2160     0.8860 oh         1 NYZ      -0.716000
     17 C2           1.9880     2.3500    -0.5350 c5         1 NYZ       0.060300
     18 O2           3.2750     2.8810    -0.6680 oh         1 NYZ      -0.733000
     19 C1           1.9660     1.3600     0.6290 c5         1 NYZ       0.324300
     20 N9           2.3650     0.0210     0.2320 na         1 NYZ      -0.220500
     21 N7           2.2370    -2.0850    -0.4750 nd         1 NYZ      -0.647000
     22 N6           4.7760    -3.6730    -0.9470 nv         1 NYZ      -1.030200
     23 N1           5.9280    -1.8000    -0.3120 nc         1 NYZ      -0.835100
     24 C10          6.0020    -0.5100     0.0960 c          1 NYZ       0.729400
     25 N3           4.8150     0.1950     0.3200 ns         1 NYZ      -0.510600
     26 C9           3.6350    -0.4210     0.1010 cc         1 NYZ       0.000600
     27 O            7.0650     0.0710     0.2780 o          1 NYZ      -0.620000
     28 H8           0.4670    -0.9590    -0.1540 h5         1 NYZ       0.187100
     29 H3A2        -4.3520     0.1460     1.1790 hc         1 NYZ       0.024200
     30 H3A1        -3.2910    -1.1680     1.6410 hc         1 NYZ       0.024200
     31 H5'1        -0.6340     1.3120    -1.2360 h1         1 NYZ       0.004200
     32 H5'2        -1.6340     2.7250    -0.9090 h1         1 NYZ       0.004200
     33 H4          -0.6260     2.9130     1.3610 h1         1 NYZ       0.096700
     34 H3           0.4870     3.8900    -0.9500 h1         1 NYZ       0.053700
     35 HO3          2.2440     4.5740     0.5760 ho         1 NYZ       0.492000
     36 H2           1.6600     1.8430    -1.4500 h1         1 NYZ       0.084700
     37 HO2          3.4090     3.1660    -1.5770 ho         1 NYZ       0.505000
     38 H1           2.6680     1.6820     1.4100 h2         1 NYZ       0.057700
     39 H61          3.9160    -4.1580    -1.1360 hn         1 NYZ       0.500500
     40 H62          5.6440    -4.1540    -1.1150 hn         1 NYZ       0.500500
     41 H7           4.8770     1.1800     0.5360 hn         1 NYZ       0.444000
     42 O5          -2.0530     1.0840     0.2750 os         1 NYZ      -0.568400
@<TRIPOS>BOND
     1     1    20 1   
     2     1    21 2   
     3     1    28 1   
     4     2     3 1   
     5     2    21 1   
     6     2    26 2   
     7     3    22 1   
     8     3    23 2   
     9     4     5 1   
    10     4     6 1   
    11     4     7 1   
    12     4    11 1   
    13     8     9 1   
    14     8    10 1   
    15     8    11 1   
    16     8    42 1   
    17    11    29 1   
    18    11    30 1   
    19    12    13 1   
    20    12    31 1   
    21    12    32 1   
    22    12    42 1   
    23    13    14 1   
    24    13    15 1   
    25    13    33 1   
    26    14    19 1   
    27    15    16 1   
    28    15    17 1   
    29    15    34 1   
    30    16    35 1   
    31    17    18 1   
    32    17    19 1   
    33    17    36 1   
    34    18    37 1   
    35    19    20 1   
    36    19    38 1   
    37    20    26 1   
    38    22    39 1   
    39    22    40 1   
    40    23    24 1   
    41    24    25 1   
    42    24    27 2   
    43    25    26 1   
    44    25    41 1   
@<TRIPOS>SUBSTRUCTURE
     1 NYZ         1 TEMP              0 ****  ****    0 ROOT
