@<TRIPOS>MOLECULE
NZ0
   35    37     1     0     0
SMALL
No Charge or Current Charge


@<TRIPOS>ATOM
      1 C1          -4.2190     2.1630   -11.4240 ca         1 NZ0      -0.092000
      2 C2          -4.0080     2.3340   -12.8150 cp         1 NZ0      -0.054000
      3 C3          -5.1540     2.4830   -13.7640 cp         1 NZ0       0.024000
      4 C4          -6.1840     3.4530   -13.5880 ca         1 NZ0      -0.080500
      5 C9          -2.6760     2.3330   -13.2910 ca         1 NZ0      -0.092000
      6 C8          -5.2460     1.6210   -14.8760 ca         1 NZ0      -0.120000
      7 O2          -0.2010     3.1340    -9.5920 oh         1 NZ0      -0.655000
      8 O1          -9.4740     4.6980   -15.6150 o          1 NZ0      -0.530000
      9 N1          -5.5710     5.8730   -11.1320 na         1 NZ0       0.126600
     10 N2          -6.7380     5.3740   -10.6310 nc         1 NZ0      -0.158800
     11 N3          -7.0920     4.4430   -11.4680 nd         1 NZ0      -0.417000
     12 C6          -7.2500     3.5020   -14.5360 ca         1 NZ0       0.216900
     13 S           -8.6020     4.7840   -14.4400 sy         1 NZ0       1.062200
     14 O           -8.0730     6.0690   -13.9810 o          1 NZ0      -0.530000
     15 N4          -9.5770     4.3160   -13.1910 n8         1 NZ0      -1.012100
     16 C5          -6.1390     4.4000   -12.4650 cd         1 NZ0       0.541500
     17 N           -5.1670     5.2730   -12.2910 nc         1 NZ0      -0.464800
     18 N5          -7.3080     2.6330   -15.5930 nb         1 NZ0      -0.585000
     19 C7          -6.3290     1.7210   -15.7510 ca         1 NZ0       0.336900
     20 C10         -1.5910     2.1840   -12.4090 ca         1 NZ0      -0.096000
     21 C11         -1.8140     2.0250   -11.0280 ca         1 NZ0      -0.077300
     22 C           -3.1350     2.0140   -10.5410 ca         1 NZ0      -0.096000
     23 H1          -5.2310     2.1360   -11.0280 ha         1 NZ0       0.120500
     24 H2          -2.4830     2.4580   -14.3540 ha         1 NZ0       0.120500
     25 H3          -4.4890     0.8610   -15.0490 ha         1 NZ0       0.133000
     26 H4           0.5530     2.9640    -8.9850 ho         1 NZ0       0.446000
     27 H5          -5.0570     6.6250   -10.6740 hn         1 NZ0       0.413000
     28 H6          -0.9450     1.2200    -9.2320 h1         1 NZ0       0.028200
     29 H7           0.1800     1.3450   -10.5920 h1         1 NZ0       0.028200
     30 H8          -8.9710     4.4530   -12.3790 hn         1 NZ0       0.489000
     31 H9         -10.2190     5.1030   -13.1240 hn         1 NZ0       0.489000
     32 H10         -6.4180     1.0530   -16.6070 h4         1 NZ0       0.032100
     33 H11         -0.5760     2.1940   -12.7990 ha         1 NZ0       0.121500
     34 H12         -3.3230     1.8870    -9.4770 ha         1 NZ0       0.121500
     35 C12         -0.6400     1.8580   -10.0720 c3         1 NZ0       0.207900
@<TRIPOS>BOND
     1     1     2 ar  
     2     1    22 ar  
     3     1    23 1   
     4     2     3 1   
     5     2     5 ar  
     6     3     4 ar  
     7     3     6 ar  
     8     4    12 ar  
     9     4    16 1   
    10     5    20 ar  
    11     5    24 1   
    12     6    19 ar  
    13     6    25 1   
    14     7    26 1   
    15     7    35 1   
    16     8    13 2   
    17     9    10 1   
    18     9    17 1   
    19     9    27 1   
    20    10    11 2   
    21    11    16 1   
    22    12    13 1   
    23    12    18 ar  
    24    13    14 2   
    25    13    15 1   
    26    15    30 1   
    27    15    31 1   
    28    16    17 2   
    29    18    19 ar  
    30    19    32 1   
    31    20    21 ar  
    32    20    33 1   
    33    21    22 ar  
    34    21    35 1   
    35    22    34 1   
    36    28    35 1   
    37    29    35 1   
@<TRIPOS>SUBSTRUCTURE
     1 NZ0         1 TEMP              0 ****  ****    0 ROOT
