@<TRIPOS>MOLECULE
NZ0
   35    37     1     0     0
SMALL
abcg2


@<TRIPOS>ATOM
      1 C1          -4.2710     2.1940   -11.3930 ca         1 NZ0      -0.092000
      2 C2          -4.0350     2.4320   -12.7440 cp         1 NZ0      -0.054000
      3 C3          -5.1500     2.5810   -13.7000 cp         1 NZ0       0.024000
      4 C4          -6.1640     3.5350   -13.5390 ca         1 NZ0      -0.080500
      5 C9          -2.7190     2.4890   -13.1980 ca         1 NZ0      -0.092000
      6 C8          -5.2200     1.7400   -14.8050 ca         1 NZ0      -0.120000
      7 O2           0.3210     2.7010   -10.3450 oh         1 NZ0      -0.655000
      8 O1          -9.2290     4.7000   -15.7160 o          1 NZ0      -0.530000
      9 N1          -5.5610     5.8850   -11.0760 na         1 NZ0       0.126600
     10 N2          -6.7220     5.4870   -10.6570 nc         1 NZ0      -0.158800
     11 N3          -7.1080     4.5800   -11.4920 nd         1 NZ0      -0.417000
     12 C6          -7.1810     3.5460   -14.4910 ca         1 NZ0       0.216900
     13 S           -8.5220     4.7590   -14.4520 sy         1 NZ0       1.062200
     14 O           -7.9440     6.0280   -14.0360 o          1 NZ0      -0.530000
     15 N4          -9.5080     4.0800   -13.3220 n8         1 NZ0      -1.012100
     16 C5          -6.1350     4.4710   -12.4110 cd         1 NZ0       0.541500
     17 N           -5.1390     5.2940   -12.1590 nc         1 NZ0      -0.464800
     18 N5          -7.2570     2.7320   -15.5180 nb         1 NZ0      -0.585000
     19 C7          -6.2870     1.8440   -15.6780 ca         1 NZ0       0.336900
     20 C10         -1.6610     2.3250   -12.3180 ca         1 NZ0      -0.096000
     21 C11         -1.8940     2.0880   -10.9660 ca         1 NZ0      -0.077300
     22 C           -3.2100     2.0260   -10.5180 ca         1 NZ0      -0.096000
     23 H1          -5.2850     2.1290   -11.0180 ha         1 NZ0       0.120500
     24 H2          -2.5190     2.6780   -14.2450 ha         1 NZ0       0.120500
     25 H3          -4.4600     0.9870   -14.9690 ha         1 NZ0       0.133000
     26 H4           1.1060     2.3780    -9.8940 ho         1 NZ0       0.446000
     27 H5          -5.0260     6.5980   -10.5940 hn         1 NZ0       0.413000
     28 H6          -1.1080     2.0370    -8.9850 h1         1 NZ0       0.028200
     29 H7          -0.4670     0.8030   -10.0590 h1         1 NZ0       0.028200
     30 H8          -9.1590     4.2020   -12.3740 hn         1 NZ0       0.489000
     31 H9         -10.4710     4.3880   -13.4150 hn         1 NZ0       0.489000
     32 H10         -6.3670     1.1840   -16.5340 h4         1 NZ0       0.032100
     33 H11         -0.6490     2.3820   -12.6950 ha         1 NZ0       0.121500
     34 H12         -3.4110     1.8430    -9.4690 ha         1 NZ0       0.121500
     35 C12         -0.7560     1.8610   -10.0090 c3         1 NZ0       0.207900
@<TRIPOS>BOND
     1     1     2 ar  
     2     1    22 ar  
     3     1    23 1   
     4     2     3 1   
     5     2     5 ar  
     6     3     4 ar  
     7     3     6 ar  
     8     4    12 ar  
     9     4    16 1   
    10     5    20 ar  
    11     5    24 1   
    12     6    19 ar  
    13     6    25 1   
    14     7    26 1   
    15     7    35 1   
    16     8    13 2   
    17     9    10 1   
    18     9    17 1   
    19     9    27 1   
    20    10    11 2   
    21    11    16 1   
    22    12    13 1   
    23    12    18 ar  
    24    13    14 2   
    25    13    15 1   
    26    15    30 1   
    27    15    31 1   
    28    16    17 2   
    29    18    19 ar  
    30    19    32 1   
    31    20    21 ar  
    32    20    33 1   
    33    21    22 ar  
    34    21    35 1   
    35    22    34 1   
    36    28    35 1   
    37    29    35 1   
@<TRIPOS>SUBSTRUCTURE
     1 NZ0         1 TEMP              0 ****  ****    0 ROOT
