@<TRIPOS>MOLECULE
NZ1
   20    21     1     0     0
SMALL
bcc


@<TRIPOS>ATOM
      1 N1           3.7760    -1.0130    -0.1160 nv         1 NZ1      -0.907800
      2 C4          -0.6070     1.6290    -0.0300 ca         1 NZ1      -0.041000
      3 C5           0.4780     0.7760    -0.0410 ca         1 NZ1      -0.096100
      4 C6           2.5070    -0.5840    -0.0580 cc         1 NZ1       0.651100
      5 C7           0.3100    -0.6210    -0.0350 ca         1 NZ1       0.179400
      6 C8          -0.9720    -1.1530    -0.0170 ca         1 NZ1      -0.140000
      7 C1          -4.4370    -0.0810     0.0120 c3         1 NZ1       0.126700
      8 C2          -2.0710    -0.2960    -0.0050 ca         1 NZ1       0.152100
      9 C3          -1.8890     1.0920    -0.0130 ca         1 NZ1      -0.223000
     10 N2           1.4700    -1.3570    -0.0440 nd         1 NZ1      -0.637100
     11 O1          -3.2800    -0.8920     0.0150 os         1 NZ1      -0.316900
     12 S1           2.1800     1.1490    -0.0630 ss         1 NZ1      -0.176100
     13 H1           4.5330    -0.3950     0.1220 hn         1 NZ1       0.435300
     14 H2           3.9430    -1.9920     0.0520 hn         1 NZ1       0.435300
     15 H4          -0.4770     2.7030    -0.0350 ha         1 NZ1       0.138000
     16 H6          -1.1160    -2.2270    -0.0110 ha         1 NZ1       0.162000
     17 H7          -5.2890    -0.7570     0.0200 h1         1 NZ1       0.040700
     18 H8          -4.4910     0.5600     0.8960 h1         1 NZ1       0.040700
     19 H9          -4.4960     0.5460    -0.8820 h1         1 NZ1       0.040700
     20 H10         -2.7290     1.7710    -0.0050 ha         1 NZ1       0.136000
@<TRIPOS>BOND
     1     1     4 1   
     2     1    13 1   
     3     1    14 1   
     4     2     3 ar  
     5     2     9 ar  
     6     2    15 1   
     7     3     5 ar  
     8     3    12 1   
     9     4    10 2   
    10     4    12 1   
    11     5     6 ar  
    12     5    10 1   
    13     6     8 ar  
    14     6    16 1   
    15     7    11 1   
    16     7    17 1   
    17     7    18 1   
    18     7    19 1   
    19     8     9 ar  
    20     8    11 1   
    21     9    20 1   
@<TRIPOS>SUBSTRUCTURE
     1 NZ1         1 TEMP              0 ****  ****    0 ROOT
