@<TRIPOS>MOLECULE
NZ1
   20    21     1     0     0
SMALL
No Charge or Current Charge


@<TRIPOS>ATOM
      1 N1           3.7690    -1.0360    -0.1210 nv         1 NZ1      -1.018200
      2 C4          -0.5680     1.6440    -0.0380 ca         1 NZ1      -0.023000
      3 C5           0.5230     0.7650    -0.0610 ca         1 NZ1      -0.223000
      4 C6           2.5310    -0.5180    -0.1040 cc         1 NZ1       0.651100
      5 C7           0.3600    -0.6070    -0.0620 ca         1 NZ1       0.179400
      6 C8          -0.9300    -1.1560    -0.0400 ca         1 NZ1      -0.122000
      7 C1          -4.5110    -0.1090     0.0300 c3         1 NZ1       0.149900
      8 C2          -2.0500    -0.3040    -0.0160 ca         1 NZ1       0.152100
      9 C3          -1.8670     1.1010    -0.0150 ca         1 NZ1      -0.205000
     10 N2           1.5210    -1.3720    -0.0860 nd         1 NZ1      -0.637100
     11 O1          -3.3010    -0.8880     0.0050 os         1 NZ1      -0.340100
     12 S1           2.2170     1.2300    -0.0900 ss         1 NZ1      -0.049200
     13 H1           4.5230    -0.4360     0.1940 hn         1 NZ1       0.490500
     14 H2           3.8360    -2.0150     0.1300 hn         1 NZ1       0.490500
     15 H4          -0.4160     2.7220    -0.0370 ha         1 NZ1       0.120000
     16 H6          -1.0640    -2.2330    -0.0400 ha         1 NZ1       0.144000
     17 H7          -5.3870    -0.7690     0.0440 h1         1 NZ1       0.040700
     18 H8          -4.5480     0.5250     0.9250 h1         1 NZ1       0.040700
     19 H9          -4.5810     0.5300    -0.8590 h1         1 NZ1       0.040700
     20 H10         -2.7130     1.7820     0.0030 ha         1 NZ1       0.118000
@<TRIPOS>BOND
     1     1     4 1   
     2     1    13 1   
     3     1    14 1   
     4     2     3 ar  
     5     2     9 ar  
     6     2    15 1   
     7     3     5 ar  
     8     3    12 1   
     9     4    10 2   
    10     4    12 1   
    11     5     6 ar  
    12     5    10 1   
    13     6     8 ar  
    14     6    16 1   
    15     7    11 1   
    16     7    17 1   
    17     7    18 1   
    18     7    19 1   
    19     8     9 ar  
    20     8    11 1   
    21     9    20 1   
@<TRIPOS>SUBSTRUCTURE
     1 NZ1         1 TEMP              0 ****  ****    0 ROOT
