@<TRIPOS>MOLECULE
NZ2
   28    28     1     0     0
SMALL
abcg2


@<TRIPOS>ATOM
      1 C01         78.7500     7.7560    26.8360 c3         1 NZ2      -0.066100
      2 C02         78.3540     6.6550    27.8070 c3         1 NZ2       0.103500
      3 C03         78.5400     5.2060    27.2630 c          1 NZ2       0.702000
      4 O04         78.1320     4.2920    28.0230 o          1 NZ2      -0.725500
      5 O05         79.0530     5.0640    26.1300 o          1 NZ2      -0.725500
      6 N06         79.0620     6.8510    29.0990 nh         1 NZ2      -0.796300
      7 C07         80.4980     6.7920    29.1150 ca         1 NZ2       0.276000
      8 C08         81.1610     5.5750    28.9710 ca         1 NZ2      -0.086000
      9 C09         82.5520     5.5410    28.9620 ca         1 NZ2      -0.121500
     10 C10         83.2810     6.7170    29.1030 ca         1 NZ2      -0.122000
     11 C11         82.6170     7.9320    29.2490 ca         1 NZ2      -0.121500
     12 C12         81.2280     7.9700    29.2500 ca         1 NZ2      -0.086000
     13 S13         78.2730     6.7530    30.5310 s6         1 NZ2       1.272100
     14 C14         78.3900     5.0760    31.0980 c3         1 NZ2      -0.382100
     15 O15         76.8780     7.0460    30.2790 o          1 NZ2      -0.580000
     16 O16         78.9840     7.5800    31.4830 o          1 NZ2      -0.580000
     17 H1          78.5440     8.7350    27.2740 hc         1 NZ2       0.027367
     18 H2          79.8070     7.7020    26.5780 hc         1 NZ2       0.027367
     19 H3          78.1750     7.6550    25.9160 hc         1 NZ2       0.027367
     20 H4          77.2960     6.7560    28.0410 h1         1 NZ2       0.066700
     21 H6          80.5880     4.6650    28.8690 ha         1 NZ2       0.138000
     22 H7          83.0640     4.5940    28.8490 ha         1 NZ2       0.102000
     23 H8          84.3640     6.6880    29.0990 ha         1 NZ2       0.095000
     24 H9          83.1800     8.8500    29.3580 ha         1 NZ2       0.102000
     25 H10         80.6980     8.9070    29.3600 ha         1 NZ2       0.138000
     26 H11         77.8140     5.0080    32.0190 h1         1 NZ2       0.105033
     27 H12         77.9900     4.4410    30.3110 h1         1 NZ2       0.105033
     28 H13         79.4380     4.8480    31.2850 h1         1 NZ2       0.105033
@<TRIPOS>BOND
     1     1     2 1   
     2     1    17 1   
     3     1    18 1   
     4     1    19 1   
     5     2     3 1   
     6     2     6 1   
     7     2    20 1   
     8     3     4 1   
     9     3     5 1   
    10     6     7 1   
    11     6    13 1   
    12     7     8 ar  
    13     7    12 ar  
    14     8     9 ar  
    15     8    21 1   
    16     9    10 ar  
    17     9    22 1   
    18    10    11 ar  
    19    10    23 1   
    20    11    12 ar  
    21    11    24 1   
    22    12    25 1   
    23    13    14 1   
    24    13    15 2   
    25    13    16 2   
    26    14    26 1   
    27    14    27 1   
    28    14    28 1   
@<TRIPOS>SUBSTRUCTURE
     1 NZ2         1 TEMP              0 ****  ****    0 ROOT
