@<TRIPOS>MOLECULE
NZ2
   28    28     1     0     0
SMALL
No Charge or Current Charge


@<TRIPOS>ATOM
      1 C01         79.0700     7.3130    26.6000 c3         1 NZ2      -0.066100
      2 C02         78.2870     6.7740    27.8230 c3         1 NZ2       0.103500
      3 C03         77.5950     5.4020    27.4450 c          1 NZ2       0.702000
      4 O04         76.4270     5.4260    27.0730 o          1 NZ2      -0.725500
      5 O05         78.2330     4.3600    27.5450 o          1 NZ2      -0.725500
      6 N06         79.0790     6.8210    29.1070 nh         1 NZ2      -0.796300
      7 C07         80.4840     6.8750    29.1250 ca         1 NZ2       0.276000
      8 C08         81.2500     5.7810    28.6800 ca         1 NZ2      -0.086000
      9 C09         82.6550     5.8380    28.6950 ca         1 NZ2      -0.121500
     10 C10         83.3060     6.9950    29.1550 ca         1 NZ2      -0.122000
     11 C11         82.5500     8.0930    29.5970 ca         1 NZ2      -0.121500
     12 C12         81.1450     8.0320    29.5810 ca         1 NZ2      -0.086000
     13 S13         78.2470     6.5310    30.5960 s6         1 NZ2       1.272100
     14 C14         78.8230     4.9280    31.1180 c3         1 NZ2      -0.382100
     15 O15         76.8140     6.4390    30.2950 o          1 NZ2      -0.580000
     16 O16         78.7300     7.5310    31.5540 o          1 NZ2      -0.580000
     17 H1          79.4780     8.3100    26.8080 hc         1 NZ2       0.027367
     18 H2          79.8970     6.6450    26.3320 hc         1 NZ2       0.027367
     19 H3          78.4070     7.3950    25.7310 hc         1 NZ2       0.027367
     20 H4          77.4530     7.4770    27.9470 h1         1 NZ2       0.066700
     21 H6          80.7510     4.8840    28.3260 ha         1 NZ2       0.138000
     22 H7          83.2380     4.9860    28.3510 ha         1 NZ2       0.102000
     23 H8          84.3920     7.0410    29.1660 ha         1 NZ2       0.095000
     24 H9          83.0510     8.9920    29.9510 ha         1 NZ2       0.102000
     25 H10         80.5630     8.8840    29.9180 ha         1 NZ2       0.138000
     26 H11         78.3080     4.6840    32.0510 h1         1 NZ2       0.105033
     27 H12         78.5720     4.2180    30.3240 h1         1 NZ2       0.105033
     28 H13         79.9050     4.9990    31.2650 h1         1 NZ2       0.105033
@<TRIPOS>BOND
     1     1     2 1   
     2     1    17 1   
     3     1    18 1   
     4     1    19 1   
     5     2     3 1   
     6     2     6 1   
     7     2    20 1   
     8     3     4 1   
     9     3     5 1   
    10     6     7 1   
    11     6    13 1   
    12     7     8 ar  
    13     7    12 ar  
    14     8     9 ar  
    15     8    21 1   
    16     9    10 ar  
    17     9    22 1   
    18    10    11 ar  
    19    10    23 1   
    20    11    12 ar  
    21    11    24 1   
    22    12    25 1   
    23    13    14 1   
    24    13    15 2   
    25    13    16 2   
    26    14    26 1   
    27    14    27 1   
    28    14    28 1   
@<TRIPOS>SUBSTRUCTURE
     1 NZ2         1 TEMP              0 ****  ****    0 ROOT
