@<TRIPOS>MOLECULE
NZ3
   28    28     1     0     0
SMALL
No Charge or Current Charge


@<TRIPOS>ATOM
      1 C01         57.1100   -10.8660    14.6210 c3         1 NZ3      -0.077100
      2 C02         57.3950   -10.7930    16.1420 c3         1 NZ3       0.110500
      3 C03         57.0010   -12.1240    16.9180 c          1 NZ3       0.716000
      4 O04         57.3460   -12.2320    18.0900 o          1 NZ3      -0.720000
      5 O05         56.4490   -13.0390    16.3150 o          1 NZ3      -0.720000
      6 N06         56.9290    -9.4820    16.7180 nh         1 NZ3      -0.791300
      7 C07         57.8620    -8.5300    17.1620 ca         1 NZ3       0.271000
      8 C08         58.8120    -8.8700    18.1450 ca         1 NZ3      -0.101500
      9 C09         59.7530    -7.9240    18.5900 ca         1 NZ3      -0.122000
     10 C10         59.7540    -6.6280    18.0490 ca         1 NZ3      -0.128000
     11 C11         58.8170    -6.2810    17.0620 ca         1 NZ3      -0.122000
     12 C12         57.8770    -7.2300    16.6200 ca         1 NZ3      -0.101500
     13 S13         55.2710    -9.2990    17.1980 s6         1 NZ3       1.269100
     14 C14         55.3210    -9.3720    18.9780 c3         1 NZ3      -0.380100
     15 O15         54.5240   -10.4600    16.7040 o          1 NZ3      -0.569000
     16 O16         54.8590    -7.9470    16.8050 o          1 NZ3      -0.569000
     17 H1          57.6000   -11.7410    14.1770 hc         1 NZ3       0.032367
     18 H2          56.0340   -10.9350    14.4210 hc         1 NZ3       0.032367
     19 H3          57.4960    -9.9730    14.1150 hc         1 NZ3       0.032367
     20 H4          58.4910   -10.7870    16.2090 h1         1 NZ3       0.036700
     21 H6          58.8120    -9.8700    18.5690 ha         1 NZ3       0.146500
     22 H7          60.4790    -8.1960    19.3530 ha         1 NZ3       0.102500
     23 H8          60.4810    -5.8950    18.3910 ha         1 NZ3       0.096000
     24 H9          58.8190    -5.2800    16.6360 ha         1 NZ3       0.102500
     25 H10         57.1620    -6.9610    15.8480 ha         1 NZ3       0.146500
     26 H11         55.9470    -8.5450    19.3240 h1         1 NZ3       0.102700
     27 H12         54.2920    -9.2710    19.3370 h1         1 NZ3       0.102700
     28 H13         55.7480   -10.3400    19.2540 h1         1 NZ3       0.102700
@<TRIPOS>BOND
     1     1     2 1   
     2     1    17 1   
     3     1    18 1   
     4     1    19 1   
     5     2     3 1   
     6     2     6 1   
     7     2    20 1   
     8     3     4 1   
     9     3     5 1   
    10     6     7 1   
    11     6    13 1   
    12     7     8 ar  
    13     7    12 ar  
    14     8     9 ar  
    15     8    21 1   
    16     9    10 ar  
    17     9    22 1   
    18    10    11 ar  
    19    10    23 1   
    20    11    12 ar  
    21    11    24 1   
    22    12    25 1   
    23    13    14 1   
    24    13    15 2   
    25    13    16 2   
    26    14    26 1   
    27    14    27 1   
    28    14    28 1   
@<TRIPOS>SUBSTRUCTURE
     1 NZ3         1 TEMP              0 ****  ****    0 ROOT
