@<TRIPOS>MOLECULE
NZ3
   28    28     1     0     0
SMALL
abcg2


@<TRIPOS>ATOM
      1 C01         57.0360   -10.8380    14.6350 c3         1 NZ3      -0.077100
      2 C02         57.3940   -10.7600    16.1130 c3         1 NZ3       0.110500
      3 C03         57.0520   -12.0310    16.9480 c          1 NZ3       0.716000
      4 O04         57.1100   -11.9100    18.1970 o          1 NZ3      -0.720000
      5 O05         56.8160   -13.0800    16.3070 o          1 NZ3      -0.720000
      6 N06         56.9040    -9.4880    16.7070 nh         1 NZ3      -0.791300
      7 C07         57.8620    -8.5230    17.1610 ca         1 NZ3       0.271000
      8 C08         58.7630    -8.8690    18.1680 ca         1 NZ3      -0.101500
      9 C09         59.7120    -7.9490    18.5960 ca         1 NZ3      -0.122000
     10 C10         59.7570    -6.6770    18.0310 ca         1 NZ3      -0.128000
     11 C11         58.8540    -6.3320    17.0300 ca         1 NZ3      -0.122000
     12 C12         57.9100    -7.2550    16.5890 ca         1 NZ3      -0.101500
     13 S13         55.3490    -9.3140    17.1940 s6         1 NZ3       1.269100
     14 C14         55.3460    -9.4390    18.9640 c3         1 NZ3      -0.380100
     15 O15         54.6070   -10.4270    16.6420 o          1 NZ3      -0.569000
     16 O16         54.9030    -7.9740    16.8710 o          1 NZ3      -0.569000
     17 H1          57.5300   -11.6940    14.1760 hc         1 NZ3       0.032367
     18 H2          55.9610   -10.9450    14.4980 hc         1 NZ3       0.032367
     19 H3          57.3660    -9.9310    14.1260 hc         1 NZ3       0.032367
     20 H4          58.4800   -10.6760    16.1910 h1         1 NZ3       0.036700
     21 H6          58.7020    -9.8580    18.6030 ha         1 NZ3       0.146500
     22 H7          60.4100    -8.2220    19.3770 ha         1 NZ3       0.102500
     23 H8          60.4940    -5.9590    18.3680 ha         1 NZ3       0.096000
     24 H9          58.8890    -5.3470    16.5820 ha         1 NZ3       0.102500
     25 H10         57.2100    -7.0000    15.8060 ha         1 NZ3       0.146500
     26 H11         55.9480    -8.6270    19.3670 h1         1 NZ3       0.102700
     27 H12         54.3100    -9.3370    19.2850 h1         1 NZ3       0.102700
     28 H13         55.7650   -10.4080    19.2200 h1         1 NZ3       0.102700
@<TRIPOS>BOND
     1     1     2 1   
     2     1    17 1   
     3     1    18 1   
     4     1    19 1   
     5     2     3 1   
     6     2     6 1   
     7     2    20 1   
     8     3     4 1   
     9     3     5 1   
    10     6     7 1   
    11     6    13 1   
    12     7     8 ar  
    13     7    12 ar  
    14     8     9 ar  
    15     8    21 1   
    16     9    10 ar  
    17     9    22 1   
    18    10    11 ar  
    19    10    23 1   
    20    11    12 ar  
    21    11    24 1   
    22    12    25 1   
    23    13    14 1   
    24    13    15 2   
    25    13    16 2   
    26    14    26 1   
    27    14    27 1   
    28    14    28 1   
@<TRIPOS>SUBSTRUCTURE
     1 NZ3         1 TEMP              0 ****  ****    0 ROOT
