@<TRIPOS>MOLECULE
NZ4
   34    35     1     0     0
SMALL
abcg2


@<TRIPOS>ATOM
      1 N1           0.3430     0.2030     0.0690 ns         1 NZ4      -0.165000
      2 C4          -3.5510    -1.2040    -0.5790 ca         1 NZ4      -0.096000
      3 C5          -2.4650    -1.9520    -1.0100 ca         1 NZ4      -0.104000
      4 C6          -1.1680    -1.5150    -0.7990 ca         1 NZ4      -0.088000
      5 C7          -0.9410    -0.3110    -0.1260 ca         1 NZ4      -0.027000
      6 C8           1.4360    -0.5600     0.4250 c          1 NZ4       0.666100
      7 C10          4.8950    -0.5320    -0.0470 c6         1 NZ4       0.132600
      8 C13         -2.0290     0.4360     0.3080 ca         1 NZ4      -0.111000
      9 C1          -5.8670     0.3930     0.2760 c3         1 NZ4      -0.195100
     10 C11          4.0200     1.3950    -1.0130 c6         1 NZ4       0.132600
     11 C12          2.8820     1.4480    -0.0040 c6         1 NZ4       0.070000
     12 C2          -4.4640     0.8500     0.5630 c          1 NZ4       0.584700
     13 C3          -3.3350     0.0040     0.0790 ca         1 NZ4      -0.153600
     14 C9           3.8050    -0.5450     1.0080 c6         1 NZ4       0.070000
     15 N2           2.6140     0.1110     0.4970 n          1 NZ4      -0.434800
     16 O1          -4.2470     1.8780     1.1710 o          1 NZ4      -0.527100
     17 O2           1.3390    -1.7560     0.6610 o          1 NZ4      -0.621100
     18 O3           5.1700     0.7840    -0.4780 os         1 NZ4      -0.444000
     19 H1           0.3760     1.1910     0.2630 hn         1 NZ4       0.150000
     20 H2          -4.5510    -1.5670    -0.7660 ha         1 NZ4       0.115000
     21 H3          -2.6300    -2.8850    -1.5320 ha         1 NZ4       0.118000
     22 H4          -0.3420    -2.1020    -1.1720 ha         1 NZ4       0.137000
     23 H5           5.8190    -0.9410     0.3630 h1         1 NZ4       0.055700
     24 H6           4.5900    -1.1600    -0.8950 h1         1 NZ4       0.055700
     25 H7          -1.8590     1.3690     0.8310 ha         1 NZ4       0.130000
     26 H8          -6.0240     0.2660    -0.7960 hc         1 NZ4       0.062367
     27 H9          -6.0640    -0.5740     0.7430 hc         1 NZ4       0.062367
     28 H10         -6.5850     1.1170     0.6550 hc         1 NZ4       0.062367
     29 H11          3.6780     0.8580    -1.9090 h1         1 NZ4       0.055700
     30 H12          4.2940     2.4090    -1.3100 h1         1 NZ4       0.055700
     31 H13          3.1440     2.1080     0.8290 h1         1 NZ4       0.062450
     32 H14          2.0140     1.8760    -0.5000 h1         1 NZ4       0.062450
     33 H15          3.5750    -1.5670     1.2960 h1         1 NZ4       0.062450
     34 H16          4.1460    -0.0130     1.9020 h1         1 NZ4       0.062450
@<TRIPOS>BOND
     1     1     5 1   
     2     1     6 1   
     3     1    19 1   
     4     2     3 ar  
     5     2    13 ar  
     6     2    20 1   
     7     3     4 ar  
     8     3    21 1   
     9     4     5 ar  
    10     4    22 1   
    11     5     8 ar  
    12     6    15 1   
    13     6    17 2   
    14     7    14 1   
    15     7    18 1   
    16     7    23 1   
    17     7    24 1   
    18     8    13 ar  
    19     8    25 1   
    20     9    12 1   
    21     9    26 1   
    22     9    27 1   
    23     9    28 1   
    24    10    11 1   
    25    10    18 1   
    26    10    29 1   
    27    10    30 1   
    28    11    15 1   
    29    11    31 1   
    30    11    32 1   
    31    12    13 1   
    32    12    16 2   
    33    14    15 1   
    34    14    33 1   
    35    14    34 1   
@<TRIPOS>SUBSTRUCTURE
     1 NZ4         1 TEMP              0 ****  ****    0 ROOT
