@<TRIPOS>MOLECULE
NZ4
   34    35     1     0     0
SMALL
No Charge or Current Charge


@<TRIPOS>ATOM
      1 N1           0.3380    -0.2870    -0.0380 ns         1 NZ4      -0.165000
      2 C4          -3.7790    -1.3270     0.0670 ca         1 NZ4      -0.096000
      3 C5          -2.8140    -2.3460     0.1120 ca         1 NZ4      -0.104000
      4 C6          -1.4460    -2.0340     0.0790 ca         1 NZ4      -0.088000
      5 C7          -1.0280    -0.6890    -0.0000 ca         1 NZ4      -0.027000
      6 C8           1.5310    -1.0020    -0.0250 c          1 NZ4       0.666100
      7 C10          5.2790    -0.0060    -0.1970 c6         1 NZ4       0.132600
      8 C13         -2.0020     0.3270    -0.0440 ca         1 NZ4      -0.111000
      9 C1          -5.8980     0.8300    -0.0260 c3         1 NZ4      -0.195100
     10 C11          4.0050     2.0080    -0.2590 c6         1 NZ4       0.132600
     11 C12          2.6740     1.2780     0.0580 c6         1 NZ4       0.070000
     12 C2          -4.4030     1.1560    -0.0610 c          1 NZ4       0.584700
     13 C3          -3.3850     0.0290    -0.0110 ca         1 NZ4      -0.153600
     14 C9           4.0420    -0.8800     0.1330 c6         1 NZ4       0.070000
     15 N2           2.7100    -0.2200    -0.0730 n          1 NZ4      -0.434800
     16 O1          -4.0450     2.3270    -0.1290 o          1 NZ4      -0.527100
     17 O2           1.5900    -2.2240     0.0210 o          1 NZ4      -0.621100
     18 O3           5.1200     1.3200     0.3340 os         1 NZ4      -0.444000
     19 H1           0.4620     0.7140    -0.0800 hn         1 NZ4       0.150000
     20 H2          -4.8280    -1.6110     0.0950 ha         1 NZ4       0.115000
     21 H3          -3.1290    -3.3860     0.1730 ha         1 NZ4       0.118000
     22 H4          -0.7330    -2.8510     0.1170 ha         1 NZ4       0.137000
     23 H5           6.1840    -0.4630     0.2290 h1         1 NZ4       0.055700
     24 H6           5.4130     0.0550    -1.2870 h1         1 NZ4       0.055700
     25 H7          -1.6770     1.3640    -0.1040 ha         1 NZ4       0.130000
     26 H8          -6.1330     0.1390    -0.8430 hc         1 NZ4       0.062367
     27 H9          -6.1130     0.2330     0.8670 hc         1 NZ4       0.062367
     28 H10         -6.5260     1.7280    -0.0670 hc         1 NZ4       0.062367
     29 H11          4.1530     2.0580    -1.3480 h1         1 NZ4       0.055700
     30 H12          3.9680     3.0380     0.1230 h1         1 NZ4       0.055700
     31 H13          2.3790     1.5290     1.0870 h1         1 NZ4       0.062450
     32 H14          1.9040     1.6920    -0.6090 h1         1 NZ4       0.062450
     33 H15          4.0960    -1.7940    -0.4750 h1         1 NZ4       0.062450
     34 H16          4.1110    -1.1930     1.1850 h1         1 NZ4       0.062450
@<TRIPOS>BOND
     1     1     5 1   
     2     1     6 1   
     3     1    19 1   
     4     2     3 ar  
     5     2    13 ar  
     6     2    20 1   
     7     3     4 ar  
     8     3    21 1   
     9     4     5 ar  
    10     4    22 1   
    11     5     8 ar  
    12     6    15 1   
    13     6    17 2   
    14     7    14 1   
    15     7    18 1   
    16     7    23 1   
    17     7    24 1   
    18     8    13 ar  
    19     8    25 1   
    20     9    12 1   
    21     9    26 1   
    22     9    27 1   
    23     9    28 1   
    24    10    11 1   
    25    10    18 1   
    26    10    29 1   
    27    10    30 1   
    28    11    15 1   
    29    11    31 1   
    30    11    32 1   
    31    12    13 1   
    32    12    16 2   
    33    14    15 1   
    34    14    33 1   
    35    14    34 1   
@<TRIPOS>SUBSTRUCTURE
     1 NZ4         1 TEMP              0 ****  ****    0 ROOT
