@<TRIPOS>MOLECULE
NZ5
   16    15     1     0     0
SMALL
abcg2


@<TRIPOS>ATOM
      1 C03          6.1060    -2.0960   -65.2400 c3         1 NZ5       0.173300
      2 C04          4.8800    -1.5480   -64.5000 c3         1 NZ5      -0.112400
      3 C05          5.8690    -2.0210   -66.7380 c3         1 NZ5       0.167600
      4 C06          4.9600    -1.7210   -62.9910 c3         1 NZ5      -0.090100
      5 O01          6.3990    -3.4330   -64.9020 oh         1 NZ5      -0.644000
      6 O02          6.9830    -2.5080   -67.4360 oh         1 NZ5      -0.644000
      7 H1           6.9510    -1.4360   -64.9890 h1         1 NZ5       0.033700
      8 H2           4.8050    -0.4830   -64.7370 hc         1 NZ5       0.045700
      9 H3           3.9700    -2.0180   -64.8870 hc         1 NZ5       0.045700
     10 H4           5.6620    -0.9670   -66.9720 h1         1 NZ5       0.020200
     11 H5           4.9490    -2.5720   -66.9840 h1         1 NZ5       0.020200
     12 H6           4.0850    -1.2970   -62.4990 hc         1 NZ5       0.034700
     13 H7           5.0050    -2.7720   -62.7050 hc         1 NZ5       0.034700
     14 H8           5.8440    -1.2240   -62.5840 hc         1 NZ5       0.034700
     15 H9           6.8520    -3.4450   -64.0550 ho         1 NZ5       0.441000
     16 H10          6.8170    -2.3980   -68.3760 ho         1 NZ5       0.441000
@<TRIPOS>BOND
     1     1     2 1   
     2     1     3 1   
     3     1     5 1   
     4     1     7 1   
     5     2     4 1   
     6     2     8 1   
     7     2     9 1   
     8     3     6 1   
     9     3    10 1   
    10     3    11 1   
    11     4    12 1   
    12     4    13 1   
    13     4    14 1   
    14     5    15 1   
    15     6    16 1   
@<TRIPOS>SUBSTRUCTURE
     1 NZ5         1 TEMP              0 ****  ****    0 ROOT
