@<TRIPOS>MOLECULE
NZ5
   16    15     1     0     0
SMALL
No Charge or Current Charge


@<TRIPOS>ATOM
      1 C03          6.0810    -2.1540   -65.2560 c3         1 NZ5       0.173300
      2 C04          4.8540    -1.6270   -64.4700 c3         1 NZ5      -0.112400
      3 C05          5.9020    -1.9830   -66.7970 c3         1 NZ5       0.167600
      4 C06          5.0250    -1.6410   -62.9340 c3         1 NZ5      -0.090100
      5 O01          6.2950    -3.5370   -64.9240 oh         1 NZ5      -0.644000
      6 O02          7.1000    -2.3350   -67.5130 oh         1 NZ5      -0.644000
      7 H1           6.9540    -1.5590   -64.9550 h1         1 NZ5       0.033700
      8 H2           4.6530    -0.5950   -64.7820 hc         1 NZ5       0.045700
      9 H3           3.9660    -2.2130   -64.7390 hc         1 NZ5       0.045700
     10 H4           5.6410    -0.9370   -67.0080 h1         1 NZ5       0.020200
     11 H5           5.0610    -2.6040   -67.1330 h1         1 NZ5       0.020200
     12 H6           4.1480    -1.1920   -62.4510 hc         1 NZ5       0.034700
     13 H7           5.1300    -2.6650   -62.5550 hc         1 NZ5       0.034700
     14 H8           5.9100    -1.0660   -62.6360 hc         1 NZ5       0.034700
     15 H9           6.5270    -3.5670   -63.9720 ho         1 NZ5       0.441000
     16 H10          6.8910    -2.2640   -68.4710 ho         1 NZ5       0.441000
@<TRIPOS>BOND
     1     1     2 1   
     2     1     3 1   
     3     1     5 1   
     4     1     7 1   
     5     2     4 1   
     6     2     8 1   
     7     2     9 1   
     8     3     6 1   
     9     3    10 1   
    10     3    11 1   
    11     4    12 1   
    12     4    13 1   
    13     4    14 1   
    14     5    15 1   
    15     6    16 1   
@<TRIPOS>SUBSTRUCTURE
     1 NZ5         1 TEMP              0 ****  ****    0 ROOT
