@<TRIPOS>MOLECULE
NZ6
   62    67     1     0     0
SMALL
No Charge or Current Charge


@<TRIPOS>ATOM
      1 C1           3.1190    17.8400     4.5840 cc         1 NZ6       0.337500
      2 C11          8.3980    17.2040     4.0420 ca         1 NZ6      -0.133000
      3 C12          7.5680    18.2990     3.7960 ca         1 NZ6      -0.027200
      4 C13          6.2670    18.3240     4.1780 ca         1 NZ6      -0.224900
      5 C17          5.7780    19.6260     3.7920 cc         1 NZ6       0.374800
      6 C18          1.7430    19.1400     8.6780 cy         1 NZ6      -0.078400
      7 C19          0.2740    18.7710     8.8820 cy         1 NZ6      -0.117000
      8 C20          0.1180    17.8340     7.6870 cy         1 NZ6      -0.078400
      9 C21         -0.0470    18.1560    10.2460 cy         1 NZ6       0.119500
     10 C23         -0.7000    19.9400     8.9720 cy         1 NZ6       0.119500
     11 C24          8.7120    14.8640     4.9660 c3         1 NZ6      -0.048800
     12 C25          3.8850    17.4450     2.2030 ca         1 NZ6      -0.085500
     13 C26          3.7280    17.6310     0.8190 ca         1 NZ6      -0.117000
     14 C27          2.6660    18.4020     0.3260 ca         1 NZ6      -0.103000
     15 C28          1.7500    18.9740     1.2200 ca         1 NZ6      -0.117000
     16 C29          1.9040    18.7880     2.6050 ca         1 NZ6      -0.085500
     17 C30          2.9920    18.0440     3.1240 ca         1 NZ6      -0.123500
     18 N2           2.0850    18.0220     5.3840 nd         1 NZ6      -0.522800
     19 N3           2.5720    17.6800     6.6350 na         1 NZ6       0.131800
     20 C4           3.9220    17.3130     6.6000 cd         1 NZ6      -0.088300
     21 C5           4.2540    17.3410     5.2710 cc         1 NZ6      -0.162000
     22 C6           4.7680    17.0930     7.8360 c3         1 NZ6      -0.035800
     23 C7           5.6600    17.2560     4.8590 ca         1 NZ6       0.098000
     24 C8           1.7220    17.7850     7.8160 cy         1 NZ6       0.076300
     25 C9           6.4720    16.1130     5.1120 ca         1 NZ6       0.083000
     26 C10          7.8390    16.0880     4.7060 ca         1 NZ6      -0.027300
     27 Cl14         5.7630    14.6610     5.8400 cl         1 NZ6      -0.217000
     28 N15          7.8440    19.5090     3.1980 na         1 NZ6      -0.075400
     29 N16          6.7310    20.3600     3.1920 nd         1 NZ6      -0.514100
     30 N22         -0.8580    19.4540    10.4240 nj         1 NZ6      -0.430800
     31 C31         -2.1980    18.9530    10.3750 c          1 NZ6       0.609100
     32 O32         -2.7370    18.1280     9.6390 o          1 NZ6      -0.614100
     33 C33         -3.0810    19.6070    11.4460 c3         1 NZ6      -0.152400
     34 C34         -3.8480    20.8220    10.8790 c3         1 NZ6      -0.084100
     35 H1           9.4390    17.2120     3.7270 ha         1 NZ6       0.123000
     36 H2           4.8070    20.0850     3.9190 h4         1 NZ6       0.057800
     37 H3           2.3910    19.1460     9.5610 hc         1 NZ6       0.074450
     38 H4           1.9180    20.0440     8.0860 hc         1 NZ6       0.074450
     39 H5          -0.2590    18.3130     6.7770 hc         1 NZ6       0.074450
     40 H6          -0.4120    16.8900     7.8520 hc         1 NZ6       0.074450
     41 H7          -0.6050    17.2120    10.2310 h1         1 NZ6       0.059950
     42 H8           0.7990    18.0900    10.9390 h1         1 NZ6       0.059950
     43 H9          -0.2410    20.9320     8.9040 h1         1 NZ6       0.059950
     44 H10         -1.5830    19.8730     8.3230 h1         1 NZ6       0.059950
     45 H11          8.7440    14.6230     6.0350 hc         1 NZ6       0.050700
     46 H12          8.3300    13.9870     4.4320 hc         1 NZ6       0.050700
     47 H13          9.7460    15.0240     4.6370 hc         1 NZ6       0.050700
     48 H14          4.6940    16.8070     2.5430 ha         1 NZ6       0.121000
     49 H15          4.4280    17.1670     0.1280 ha         1 NZ6       0.112000
     50 H16          2.5450    18.5440    -0.7460 ha         1 NZ6       0.111000
     51 H17          0.9160    19.5620     0.8410 ha         1 NZ6       0.112000
     52 H18          1.1790    19.2450     3.2740 ha         1 NZ6       0.121000
     53 H19          4.5270    17.8240     8.6170 hc         1 NZ6       0.056700
     54 H20          4.6010    16.0940     8.2540 hc         1 NZ6       0.056700
     55 H21          5.8380    17.1970     7.6250 hc         1 NZ6       0.056700
     56 H22          2.0190    16.9300     8.4340 h1         1 NZ6       0.073700
     57 H23          8.7380    19.7950     2.8010 hn         1 NZ6       0.377000
     58 H24         -3.8060    18.8770    11.8230 hc         1 NZ6       0.060200
     59 H25         -2.4520    19.9770    12.2640 hc         1 NZ6       0.060200
     60 H26         -4.4690    21.2810    11.6580 hc         1 NZ6       0.041367
     61 H27         -3.1510    21.5810    10.5040 hc         1 NZ6       0.041367
     62 H28         -4.5040    20.5170    10.0540 hc         1 NZ6       0.041367
@<TRIPOS>BOND
     1     1    17 1   
     2     1    18 2   
     3     1    21 1   
     4     2     3 ar  
     5     2    26 ar  
     6     2    35 1   
     7     3     4 ar  
     8     3    28 1   
     9     4     5 1   
    10     4    23 ar  
    11     5    29 2   
    12     5    36 1   
    13     6     7 1   
    14     6    24 1   
    15     6    37 1   
    16     6    38 1   
    17     7     8 1   
    18     7     9 1   
    19     7    10 1   
    20     8    24 1   
    21     8    39 1   
    22     8    40 1   
    23     9    30 1   
    24     9    41 1   
    25     9    42 1   
    26    10    30 1   
    27    10    43 1   
    28    10    44 1   
    29    11    26 1   
    30    11    45 1   
    31    11    46 1   
    32    11    47 1   
    33    12    13 ar  
    34    12    17 ar  
    35    12    48 1   
    36    13    14 ar  
    37    13    49 1   
    38    14    15 ar  
    39    14    50 1   
    40    15    16 ar  
    41    15    51 1   
    42    16    17 ar  
    43    16    52 1   
    44    18    19 1   
    45    19    20 1   
    46    19    24 1   
    47    20    21 2   
    48    20    22 1   
    49    21    23 1   
    50    22    53 1   
    51    22    54 1   
    52    22    55 1   
    53    23    25 ar  
    54    24    56 1   
    55    25    26 ar  
    56    25    27 1   
    57    28    29 1   
    58    28    57 1   
    59    30    31 1   
    60    31    32 2   
    61    31    33 1   
    62    33    34 1   
    63    33    58 1   
    64    33    59 1   
    65    34    60 1   
    66    34    61 1   
    67    34    62 1   
@<TRIPOS>SUBSTRUCTURE
     1 NZ6         1 TEMP              0 ****  ****    0 ROOT
