@<TRIPOS>MOLECULE
NZ6
   62    67     1     0     0
SMALL
abcg2


@<TRIPOS>ATOM
      1 C1           3.3140    18.0610     4.8110 cc         1 NZ6       0.337500
      2 C11          8.3100    16.7550     3.5800 ca         1 NZ6      -0.133000
      3 C12          7.7590    18.0390     3.6270 ca         1 NZ6      -0.027200
      4 C13          6.5200    18.2980     4.2450 ca         1 NZ6      -0.224900
      5 C17          6.3240    19.6990     4.0850 cc         1 NZ6       0.374800
      6 C18          1.5990    19.5090     8.4780 cy         1 NZ6      -0.078400
      7 C19          0.2880    18.8610     8.9660 cy         1 NZ6      -0.117000
      8 C20          0.6310    17.6100     8.1330 cy         1 NZ6      -0.078400
      9 C21          0.0690    18.7040    10.4950 cy         1 NZ6       0.119500
     10 C23         -1.0750    19.5800     8.8870 cy         1 NZ6       0.119500
     11 C24          8.1580    14.3210     4.1220 c3         1 NZ6      -0.048800
     12 C25          3.7270    17.5760     2.3980 ca         1 NZ6      -0.085500
     13 C26          3.5230    17.8510     1.0520 ca         1 NZ6      -0.117000
     14 C27          2.6790    18.8880     0.6670 ca         1 NZ6      -0.103000
     15 C28          2.0390    19.6490     1.6420 ca         1 NZ6      -0.117000
     16 C29          2.2470    19.3780     2.9890 ca         1 NZ6      -0.085500
     17 C30          3.0950    18.3390     3.3860 ca         1 NZ6      -0.123500
     18 N2           2.3510    18.2820     5.7080 nd         1 NZ6      -0.522800
     19 N3           2.8720    17.9240     6.9010 na         1 NZ6       0.131800
     20 C4           4.1510    17.4790     6.7950 cd         1 NZ6      -0.088300
     21 C5           4.4760    17.5460     5.4480 cc         1 NZ6      -0.162000
     22 C6           4.9790    17.0560     7.9550 c3         1 NZ6      -0.035800
     23 C7           5.7790    17.2540     4.8370 ca         1 NZ6       0.098000
     24 C8           2.0970    18.0930     8.1100 cy         1 NZ6       0.076300
     25 C9           6.3500    15.9920     4.7730 ca         1 NZ6       0.083000
     26 C10          7.6040    15.7160     4.1590 ca         1 NZ6      -0.027300
     27 CL14         5.4600    14.6340     5.4440 cl         1 NZ6      -0.217000
     28 N15          8.2030    19.2380     3.1600 na         1 NZ6      -0.075400
     29 N16          7.3370    20.2440     3.4360 nd         1 NZ6      -0.514100
     30 N22         -1.1940    19.4310    10.3450 nj         1 NZ6      -0.430800
     31 C31         -2.1770    19.6320    11.2270 c          1 NZ6       0.609100
     32 O32         -2.0640    19.2890    12.4120 o          1 NZ6      -0.614100
     33 C33         -3.4420    20.2710    10.6930 c3         1 NZ6      -0.152400
     34 C34         -4.5060    19.2080    10.3980 c3         1 NZ6      -0.084100
     35 H1           9.2630    16.5680     3.1040 ha         1 NZ6       0.123000
     36 H2           5.4940    20.3050     4.4120 h4         1 NZ6       0.057800
     37 H3           2.1850    20.0800     9.1970 hc         1 NZ6       0.074450
     38 H4           1.4310    20.1010     7.5780 hc         1 NZ6       0.074450
     39 H5           0.1880    17.6700     7.1390 hc         1 NZ6       0.074450
     40 H6           0.4280    16.6340     8.5730 hc         1 NZ6       0.074450
     41 H7          -0.0660    17.6780    10.8440 h1         1 NZ6       0.059950
     42 H8           0.7950    19.2150    11.1310 h1         1 NZ6       0.059950
     43 H9          -1.0300    20.6180     8.5530 h1         1 NZ6       0.059950
     44 H10         -1.8430    19.0440     8.3270 h1         1 NZ6       0.059950
     45 H11          8.2880    13.9200     5.1290 hc         1 NZ6       0.050700
     46 H12          7.4850    13.6430     3.5930 hc         1 NZ6       0.050700
     47 H13          9.1240    14.3130     3.6180 hc         1 NZ6       0.050700
     48 H14          4.3730    16.7570     2.6840 ha         1 NZ6       0.121000
     49 H15          4.0210    17.2490     0.3010 ha         1 NZ6       0.112000
     50 H16          2.5220    19.1030    -0.3830 ha         1 NZ6       0.111000
     51 H17          1.3830    20.4600     1.3530 ha         1 NZ6       0.112000
     52 H18          1.7600    19.9810     3.7440 ha         1 NZ6       0.121000
     53 H19          5.0090    17.8260     8.7280 hc         1 NZ6       0.056700
     54 H20          4.5920    16.1400     8.4080 hc         1 NZ6       0.056700
     55 H21          5.9980    16.8630     7.6240 hc         1 NZ6       0.056700
     56 H22          2.6670    17.6520     8.9230 h1         1 NZ6       0.073700
     57 H23          9.0580    19.4330     2.6660 hn         1 NZ6       0.377000
     58 H24         -3.8040    20.9590    11.4580 hc         1 NZ6       0.060200
     59 H25         -3.2310    20.8510     9.7930 hc         1 NZ6       0.060200
     60 H26         -5.4270    19.6780    10.0490 hc         1 NZ6       0.041367
     61 H27         -4.1660    18.5150     9.6250 hc         1 NZ6       0.041367
     62 H28         -4.7350    18.6320    11.2960 hc         1 NZ6       0.041367
@<TRIPOS>BOND
     1     1    17 1   
     2     1    18 2   
     3     1    21 1   
     4     2     3 ar  
     5     2    26 ar  
     6     2    35 1   
     7     3     4 ar  
     8     3    28 1   
     9     4     5 1   
    10     4    23 ar  
    11     5    29 2   
    12     5    36 1   
    13     6     7 1   
    14     6    24 1   
    15     6    37 1   
    16     6    38 1   
    17     7     8 1   
    18     7     9 1   
    19     7    10 1   
    20     8    24 1   
    21     8    39 1   
    22     8    40 1   
    23     9    30 1   
    24     9    41 1   
    25     9    42 1   
    26    10    30 1   
    27    10    43 1   
    28    10    44 1   
    29    11    26 1   
    30    11    45 1   
    31    11    46 1   
    32    11    47 1   
    33    12    13 ar  
    34    12    17 ar  
    35    12    48 1   
    36    13    14 ar  
    37    13    49 1   
    38    14    15 ar  
    39    14    50 1   
    40    15    16 ar  
    41    15    51 1   
    42    16    17 ar  
    43    16    52 1   
    44    18    19 1   
    45    19    20 1   
    46    19    24 1   
    47    20    21 2   
    48    20    22 1   
    49    21    23 1   
    50    22    53 1   
    51    22    54 1   
    52    22    55 1   
    53    23    25 ar  
    54    24    56 1   
    55    25    26 ar  
    56    25    27 1   
    57    28    29 1   
    58    28    57 1   
    59    30    31 1   
    60    31    32 2   
    61    31    33 1   
    62    33    34 1   
    63    33    58 1   
    64    33    59 1   
    65    34    60 1   
    66    34    61 1   
    67    34    62 1   
@<TRIPOS>SUBSTRUCTURE
     1 NZ6         1 TEMP              0 ****  ****    0 ROOT
