@<TRIPOS>MOLECULE
NZ7
   33    34     1     0     0
SMALL
No Charge or Current Charge


@<TRIPOS>ATOM
      1 N1          -2.6430    -0.1660     0.1570 n          1 NZ7      -0.417800
      2 C4          -0.3860     1.7120     0.9020 c6         1 NZ7       0.052000
      3 C5           0.4950     2.8220     0.2810 c6         1 NZ7       0.146600
      4 C6           1.9410     1.2270    -0.7880 c6         1 NZ7       0.154600
      5 C7           1.1360     0.0020    -0.2470 c5         1 NZ7       0.050400
      6 C8           1.1000    -1.1770    -1.2950 c5         1 NZ7      -0.104400
      7 C10          1.8490    -0.6350     0.9920 c5         1 NZ7       0.131600
      8 C1          -3.0010     0.9850    -0.7060 c3         1 NZ7       0.092800
      9 C2          -3.7470    -1.0870     0.5060 c3         1 NZ7       0.092800
     10 C3          -1.3010    -0.5660     0.3670 c          1 NZ7       0.645100
     11 C9           1.8380    -2.3320    -0.5570 c5         1 NZ7       0.146600
     12 N2          -0.2640     0.3950     0.1980 n          1 NZ7      -0.403800
     13 O1          -1.0610    -1.7200     0.6920 o          1 NZ7      -0.621100
     14 O2           1.8470     2.3590     0.1010 os         1 NZ7      -0.441000
     15 O3           2.6720    -1.6590     0.4050 os         1 NZ7      -0.446000
     16 H1          -0.0690     1.5670     1.9440 h1         1 NZ7       0.052700
     17 H2          -1.4240     2.0610     0.9480 h1         1 NZ7       0.052700
     18 H3           0.0840     3.1230    -0.6940 h1         1 NZ7       0.051700
     19 H4           0.5000     3.7050     0.9350 h1         1 NZ7       0.051700
     20 H5           3.0000     0.9580    -0.9140 h1         1 NZ7       0.057700
     21 H6           1.5530     1.5210    -1.7740 h1         1 NZ7       0.057700
     22 H7           0.1010    -1.4690    -1.6330 hc         1 NZ7       0.059700
     23 H8           1.6500    -0.9120    -2.2050 hc         1 NZ7       0.059700
     24 H9           2.4720     0.0800     1.5460 h1         1 NZ7       0.061700
     25 H10          1.1520    -1.1020     1.6990 h1         1 NZ7       0.061700
     26 H11         -3.3490     1.8210    -0.0870 h1         1 NZ7       0.040533
     27 H12         -2.1420     1.3070    -1.3080 h1         1 NZ7       0.040533
     28 H13         -3.8080     0.6980    -1.3920 h1         1 NZ7       0.040533
     29 H14         -4.7090    -0.5590     0.4680 h1         1 NZ7       0.040533
     30 H15         -3.7690    -1.9240    -0.2030 h1         1 NZ7       0.040533
     31 H16         -3.6010    -1.4760     1.5220 h1         1 NZ7       0.040533
     32 H17          1.1380    -2.9890    -0.0240 h1         1 NZ7       0.056700
     33 H18          2.4530    -2.9460    -1.2290 h1         1 NZ7       0.056700
@<TRIPOS>BOND
     1     1     8 1   
     2     1     9 1   
     3     1    10 1   
     4     2     3 1   
     5     2    12 1   
     6     2    16 1   
     7     2    17 1   
     8     3    14 1   
     9     3    18 1   
    10     3    19 1   
    11     4     5 1   
    12     4    14 1   
    13     4    20 1   
    14     4    21 1   
    15     5     6 1   
    16     5     7 1   
    17     5    12 1   
    18     6    11 1   
    19     6    22 1   
    20     6    23 1   
    21     7    15 1   
    22     7    24 1   
    23     7    25 1   
    24     8    26 1   
    25     8    27 1   
    26     8    28 1   
    27     9    29 1   
    28     9    30 1   
    29     9    31 1   
    30    10    12 1   
    31    10    13 2   
    32    11    15 1   
    33    11    32 1   
    34    11    33 1   
@<TRIPOS>SUBSTRUCTURE
     1 NZ7         1 TEMP              0 ****  ****    0 ROOT
