@<TRIPOS>MOLECULE
NZ7
   33    34     1     0     0
SMALL
abcg2


@<TRIPOS>ATOM
      1 N1          -2.5900    -0.0950     0.1300 n          1 NZ7      -0.417800
      2 C4          -0.3630     1.5950     0.9070 c6         1 NZ7       0.052000
      3 C5           0.4330     2.7040     0.2580 c6         1 NZ7       0.146600
      4 C6           1.7790     1.1540    -0.8110 c6         1 NZ7       0.154600
      5 C7           1.0410    -0.0500    -0.2150 c5         1 NZ7       0.050400
      6 C8           1.1590    -1.1980    -1.2430 c5         1 NZ7      -0.104400
      7 C10          1.8080    -0.6040     1.0110 c5         1 NZ7       0.131600
      8 C1          -2.9560     1.0390    -0.6940 c3         1 NZ7       0.092800
      9 C2          -3.6840    -0.9620     0.5080 c3         1 NZ7       0.092800
     10 C3          -1.3190    -0.5560     0.2670 c          1 NZ7       0.645100
     11 C9           1.9380    -2.2770    -0.4980 c5         1 NZ7       0.146600
     12 N2          -0.3220     0.3920     0.0750 n          1 NZ7      -0.403800
     13 O1          -1.0860    -1.7280     0.5370 o          1 NZ7      -0.621100
     14 O2           1.7570     2.2900     0.0130 os         1 NZ7      -0.441000
     15 O3           2.6760    -1.5850     0.4930 os         1 NZ7      -0.446000
     16 H1           0.0410     1.3860     1.9070 h1         1 NZ7       0.052700
     17 H2          -1.3880     1.9300     1.0520 h1         1 NZ7       0.052700
     18 H3          -0.0570     3.0090    -0.6780 h1         1 NZ7       0.051700
     19 H4           0.4730     3.5700     0.9180 h1         1 NZ7       0.051700
     20 H5           2.8260     0.8870    -0.9700 h1         1 NZ7       0.057700
     21 H6           1.3350     1.3810    -1.7920 h1         1 NZ7       0.057700
     22 H7           0.2050    -1.5580    -1.6180 hc         1 NZ7       0.059700
     23 H8           1.7270    -0.8550    -2.1120 hc         1 NZ7       0.059700
     24 H9           2.4060     0.1520     1.5220 h1         1 NZ7       0.061700
     25 H10          1.1080    -1.0340     1.7360 h1         1 NZ7       0.061700
     26 H11         -3.4530     1.8170    -0.1100 h1         1 NZ7       0.040533
     27 H12         -2.0840     1.4670    -1.1780 h1         1 NZ7       0.040533
     28 H13         -3.6460     0.7170    -1.4780 h1         1 NZ7       0.040533
     29 H14         -4.5530    -0.3480     0.7440 h1         1 NZ7       0.040533
     30 H15         -3.9630    -1.6500    -0.2950 h1         1 NZ7       0.040533
     31 H16         -3.4330    -1.5440     1.3910 h1         1 NZ7       0.040533
     32 H17          1.2550    -3.0000    -0.0390 h1         1 NZ7       0.056700
     33 H18          2.6380    -2.8200    -1.1340 h1         1 NZ7       0.056700
@<TRIPOS>BOND
     1     1     8 1   
     2     1     9 1   
     3     1    10 1   
     4     2     3 1   
     5     2    12 1   
     6     2    16 1   
     7     2    17 1   
     8     3    14 1   
     9     3    18 1   
    10     3    19 1   
    11     4     5 1   
    12     4    14 1   
    13     4    20 1   
    14     4    21 1   
    15     5     6 1   
    16     5     7 1   
    17     5    12 1   
    18     6    11 1   
    19     6    22 1   
    20     6    23 1   
    21     7    15 1   
    22     7    24 1   
    23     7    25 1   
    24     8    26 1   
    25     8    27 1   
    26     8    28 1   
    27     9    29 1   
    28     9    30 1   
    29     9    31 1   
    30    10    12 1   
    31    10    13 2   
    32    11    15 1   
    33    11    32 1   
    34    11    33 1   
@<TRIPOS>SUBSTRUCTURE
     1 NZ7         1 TEMP              0 ****  ****    0 ROOT
