@<TRIPOS>MOLECULE
NZ8
   52    56     1     0     0
SMALL
No Charge or Current Charge


@<TRIPOS>ATOM
      1 CAB          1.8160    12.0570   -26.3670 c3         1 NZ8       0.363300
      2 CAE          2.3960    10.6700   -26.0400 ca         1 NZ8      -0.165300
      3 CAF          2.9190    10.3930   -24.7510 ca         1 NZ8      -0.076000
      4 CAG          3.4550     9.1220   -24.4380 ca         1 NZ8      -0.011000
      5 CAI          4.1880     9.5160   -22.0020 c          1 NZ8       0.669100
      6 CAL          5.1160     9.0300   -19.6540 ca         1 NZ8      -0.003000
      7 CAM          4.8940    10.2740   -19.0310 ca         1 NZ8      -0.112000
      8 CAN          5.2920    10.4860   -17.6990 ca         1 NZ8      -0.089000
      9 CAO          5.9230     9.4670   -16.9450 ca         1 NZ8       0.013600
     10 CAQ          6.4040     8.7570   -14.5340 c          1 NZ8       0.604600
     11 CAS          5.8140     7.3920   -14.6990 ca         1 NZ8      -0.222600
     12 CAT          5.1580     6.7820   -13.6100 ca         1 NZ8      -0.008000
     13 CAU          4.6800     5.4740   -13.7650 ca         1 NZ8      -0.181000
     14 CAV          4.8920     4.8120   -14.9810 ca         1 NZ8       0.379900
     15 CAX          5.9940     6.6430   -15.8650 ca         1 NZ8       0.589300
     16 CAZ          6.1110     8.2200   -17.5760 ca         1 NZ8       0.115100
     17 CBA          5.7250     8.0080   -18.9080 ca         1 NZ8      -0.156000
     18 CBB          6.7980    11.0940   -15.3240 ca         1 NZ8       0.080600
     19 CBC          7.5780    11.7980   -16.2650 ca         1 NZ8      -0.156000
     20 CBD          7.9890    13.1110   -15.9880 ca         1 NZ8       0.341900
     21 CBF          6.9220    13.0890   -13.9370 ca         1 NZ8       0.341900
     22 CBG          6.4720    11.7740   -14.1330 ca         1 NZ8      -0.156000
     23 CBH          3.4620     8.1230   -25.4250 ca         1 NZ8      -0.135000
     24 CBI          2.9480     8.3830   -26.7040 ca         1 NZ8      -0.082000
     25 CBJ          2.4180     9.6440   -27.0160 ca         1 NZ8       0.134000
     26 FAA          1.8720    12.9160   -25.3230 f          1 NZ8      -0.106333
     27 FAC          2.4800    12.6520   -27.3840 f          1 NZ8      -0.106333
     28 FAD          0.5140    11.9850   -26.7280 f          1 NZ8      -0.106333
     29 NAH          3.9930     8.7820   -23.1640 ns         1 NZ8      -0.161000
     30 NAK          4.7470     8.7380   -20.9970 ns         1 NZ8      -0.159000
     31 NAP          6.3630     9.7310   -15.5810 n          1 NZ8      -0.234200
     32 NAW          5.5470     5.3800   -16.0150 nb         1 NZ8      -0.681000
     33 NBE          7.6700    13.7560   -14.8440 nb         1 NZ8      -0.662000
     34 OAJ          3.9080    10.7020   -21.8800 o          1 NZ8      -0.593100
     35 OAR          6.9270     9.0170   -13.4560 o          1 NZ8      -0.518000
     36 OAY          6.6770     7.1820   -16.9060 os         1 NZ8      -0.362400
     37 ClK          1.7910     9.8900   -28.6480 cl         1 NZ8      -0.165000
     38 H1           2.9010    11.1720   -23.9970 ha         1 NZ8       0.167000
     39 H2           4.4110    11.0930   -19.5560 ha         1 NZ8       0.156000
     40 H3           5.0850    11.4550   -17.2510 ha         1 NZ8       0.134000
     41 H4           5.0190     7.3100   -12.6670 ha         1 NZ8       0.141000
     42 H5           4.1590     4.9710   -12.9550 ha         1 NZ8       0.135000
     43 H6           4.5370     3.7920   -15.1290 h4         1 NZ8       0.028100
     44 H7           5.8970     7.0340   -19.3590 ha         1 NZ8       0.136000
     45 H8           7.8870    11.3340   -17.1970 ha         1 NZ8       0.136000
     46 H9           8.5960    13.6640   -16.7030 h4         1 NZ8       0.023100
     47 H10          6.6710    13.6290   -13.0240 h4         1 NZ8       0.023100
     48 H11          5.8550    11.3120   -13.3690 ha         1 NZ8       0.136000
     49 H12          3.8680     7.1380   -25.2040 ha         1 NZ8       0.119000
     50 H13          2.9600     7.6020   -27.4610 ha         1 NZ8       0.137000
     51 H14          4.2880     7.8170   -23.0970 hn         1 NZ8       0.151000
     52 H15          4.9250     7.7800   -21.2670 hn         1 NZ8       0.152000
@<TRIPOS>BOND
     1     1     2 1   
     2     1    26 1   
     3     1    27 1   
     4     1    28 1   
     5     2     3 ar  
     6     2    25 ar  
     7     3     4 ar  
     8     3    38 1   
     9     4    23 ar  
    10     4    29 1   
    11     5    29 1   
    12     5    30 1   
    13     5    34 2   
    14     6     7 ar  
    15     6    17 ar  
    16     6    30 1   
    17     7     8 ar  
    18     7    39 1   
    19     8     9 ar  
    20     8    40 1   
    21     9    16 ar  
    22     9    31 1   
    23    10    11 1   
    24    10    31 1   
    25    10    35 2   
    26    11    12 ar  
    27    11    15 ar  
    28    12    13 ar  
    29    12    41 1   
    30    13    14 ar  
    31    13    42 1   
    32    14    32 ar  
    33    14    43 1   
    34    15    32 ar  
    35    15    36 1   
    36    16    17 ar  
    37    16    36 1   
    38    17    44 1   
    39    18    19 ar  
    40    18    22 ar  
    41    18    31 1   
    42    19    20 ar  
    43    19    45 1   
    44    20    33 ar  
    45    20    46 1   
    46    21    22 ar  
    47    21    33 ar  
    48    21    47 1   
    49    22    48 1   
    50    23    24 ar  
    51    23    49 1   
    52    24    25 ar  
    53    24    50 1   
    54    25    37 1   
    55    29    51 1   
    56    30    52 1   
@<TRIPOS>SUBSTRUCTURE
     1 NZ8         1 TEMP              0 ****  ****    0 ROOT
