@<TRIPOS>MOLECULE
NZ8
   52    56     1     0     0
SMALL
bcc


@<TRIPOS>ATOM
      1 CAB          1.5910    11.9240   -25.8160 c3         1 NZ8       0.727200
      2 CAE          2.2630    10.5910   -25.6500 ca         1 NZ8      -0.165300
      3 CAF          3.0200    10.3470   -24.5110 ca         1 NZ8      -0.094000
      4 CAG          3.6490     9.1160   -24.3290 ca         1 NZ8       0.081600
      5 CAI          4.3790     9.3650   -21.9800 c          1 NZ8       0.803100
      6 CAL          5.4110     9.0660   -19.7510 ca         1 NZ8       0.089600
      7 CAM          5.0460    10.2740   -19.1520 ca         1 NZ8      -0.130000
      8 CAN          5.2870    10.4760   -17.8050 ca         1 NZ8      -0.107000
      9 CAO          5.9050     9.5110   -17.0170 ca         1 NZ8       0.013600
     10 CAQ          6.0280     8.9240   -14.6180 c          1 NZ8       0.747100
     11 CAS          5.5540     7.5430   -14.9070 ca         1 NZ8      -0.287900
     12 CAT          4.7250     6.9130   -13.9860 ca         1 NZ8      -0.026000
     13 CAU          4.4010     5.5790   -14.1660 ca         1 NZ8      -0.264300
     14 CAV          4.9580     4.9100   -15.2450 ca         1 NZ8       0.445200
     15 CAX          6.0300     6.7680   -15.9610 ca         1 NZ8       0.654600
     16 CAZ          6.2630     8.3160   -17.6260 ca         1 NZ8       0.115100
     17 CBA          6.0070     8.0820   -18.9620 ca         1 NZ8      -0.174000
     18 CBB          6.7560    11.0740   -15.3890 ca         1 NZ8       0.080600
     19 CBC          7.9610    11.4470   -15.9660 ca         1 NZ8      -0.239300
     20 CBD          8.4450    12.7200   -15.7090 ca         1 NZ8       0.407200
     21 CBF          6.6670    13.2290   -14.3920 ca         1 NZ8       0.407200
     22 CBG          6.0880    11.9840   -14.5860 ca         1 NZ8      -0.239300
     23 CBH          3.5190     8.1440   -25.3200 ca         1 NZ8      -0.153000
     24 CBI          2.7770     8.3880   -26.4580 ca         1 NZ8      -0.100000
     25 CBJ          2.1420     9.6070   -26.6270 ca         1 NZ8       0.042400
     26 FAA          1.8190    12.7380   -24.7820 f          1 NZ8      -0.227633
     27 FAC          2.0180    12.5620   -26.9120 f          1 NZ8      -0.227633
     28 FAD          0.2630    11.8000   -25.9250 f          1 NZ8      -0.227633
     29 NAH          4.4440     8.8060   -23.2300 ns         1 NZ8      -0.487100
     30 NAK          5.2420     8.7690   -21.1000 ns         1 NZ8      -0.485100
     31 NAP          6.2200     9.7840   -15.6650 n          1 NZ8      -0.301200
     32 NAW          5.7600     5.4980   -16.1280 nb         1 NZ8      -0.681000
     33 NBE          7.8200    13.6000   -14.9370 nb         1 NZ8      -0.662000
     34 OAJ          3.6430    10.2890   -21.6900 o          1 NZ8      -0.593100
     35 OAR          6.2450     9.2580   -13.4710 o          1 NZ8      -0.593500
     36 OAY          6.8610     7.3240   -16.8900 os         1 NZ8      -0.362400
     37 CLK          1.2160     9.8560   -28.0660 cl         1 NZ8      -0.073400
     38 H1           3.1270    11.1180   -23.7680 ha         1 NZ8       0.185000
     39 H2           4.5840    11.0650   -19.7180 ha         1 NZ8       0.174000
     40 H3           4.9980    11.4220   -17.3660 ha         1 NZ8       0.152000
     41 H4           4.3410     7.4630   -13.1380 ha         1 NZ8       0.159000
     42 H5           3.7470     5.0630   -13.4790 ha         1 NZ8       0.153000
     43 H6           4.7500     3.8600   -15.4080 h4         1 NZ8       0.028100
     44 H7           6.2900     7.1280   -19.3890 ha         1 NZ8       0.154000
     45 H8           8.5130    10.7680   -16.6020 ha         1 NZ8       0.154000
     46 H9           9.3850    13.0350   -16.1470 h4         1 NZ8       0.023100
     47 H10          6.1650    13.9610   -13.7690 h4         1 NZ8       0.023100
     48 H11          5.1370    11.7490   -14.1310 ha         1 NZ8       0.154000
     49 H12          4.0000     7.1810   -25.2030 ha         1 NZ8       0.137000
     50 H13          2.6850     7.6210   -27.2150 ha         1 NZ8       0.155000
     51 H14          5.0170     7.9830   -23.3430 hn         1 NZ8       0.317500
     52 H15          5.7460     7.9560   -21.4200 hn         1 NZ8       0.318500
@<TRIPOS>BOND
     1     1     2 1   
     2     1    26 1   
     3     1    27 1   
     4     1    28 1   
     5     2     3 ar  
     6     2    25 ar  
     7     3     4 ar  
     8     3    38 1   
     9     4    23 ar  
    10     4    29 1   
    11     5    29 1   
    12     5    30 1   
    13     5    34 2   
    14     6     7 ar  
    15     6    17 ar  
    16     6    30 1   
    17     7     8 ar  
    18     7    39 1   
    19     8     9 ar  
    20     8    40 1   
    21     9    16 ar  
    22     9    31 1   
    23    10    11 1   
    24    10    31 1   
    25    10    35 2   
    26    11    12 ar  
    27    11    15 ar  
    28    12    13 ar  
    29    12    41 1   
    30    13    14 ar  
    31    13    42 1   
    32    14    32 ar  
    33    14    43 1   
    34    15    32 ar  
    35    15    36 1   
    36    16    17 ar  
    37    16    36 1   
    38    17    44 1   
    39    18    19 ar  
    40    18    22 ar  
    41    18    31 1   
    42    19    20 ar  
    43    19    45 1   
    44    20    33 ar  
    45    20    46 1   
    46    21    22 ar  
    47    21    33 ar  
    48    21    47 1   
    49    22    48 1   
    50    23    24 ar  
    51    23    49 1   
    52    24    25 ar  
    53    24    50 1   
    54    25    37 1   
    55    29    51 1   
    56    30    52 1   
@<TRIPOS>SUBSTRUCTURE
     1 NZ8         1 TEMP              0 ****  ****    0 ROOT
