@<TRIPOS>MOLECULE
NZ9
   23    24     1     0     0
SMALL
No Charge or Current Charge


@<TRIPOS>ATOM
      1 C01         52.8000     0.4720    22.2310 cc         1 NZ9      -0.066000
      2 C02         52.3270     1.6190    21.6590 cd         1 NZ9      -0.314000
      3 S03         50.6890     1.9720    22.2070 ss         1 NZ9       0.245000
      4 C04         50.6630     0.4730    23.1570 cd         1 NZ9      -0.125600
      5 C05         51.8910    -0.2040    23.0960 cc         1 NZ9      -0.346500
      6 S06         52.3340    -1.7260    23.9700 sy         1 NZ9       1.203600
      7 O07         52.1040    -1.5320    25.4040 o          1 NZ9      -0.577500
      8 O08         53.6160    -2.2310    23.4680 o          1 NZ9      -0.577500
      9 N09         51.1740    -2.8140    23.5010 n7         1 NZ9      -0.848300
     10 C10         50.9270    -2.9490    22.0890 cx         1 NZ9       0.177500
     11 C11         51.5910    -4.1020    21.3800 cx         1 NZ9      -0.155900
     12 C12         50.1100    -4.1430    21.6660 cx         1 NZ9      -0.155900
     13 C13         49.3980     0.0690    23.8570 c          1 NZ9       0.727600
     14 O14         48.4460     0.8350    23.8070 o          1 NZ9      -0.692000
     15 O15         49.3230    -1.0190    24.4070 o          1 NZ9      -0.692000
     16 H1          53.8020     0.0910    22.0450 ha         1 NZ9       0.134000
     17 H2          52.8330     2.2890    20.9760 h4         1 NZ9       0.128000
     18 H3          50.3880    -2.2880    23.9120 hn         1 NZ9       0.545000
     19 H4          50.7750    -2.0270    21.5210 h1         1 NZ9       0.084700
     20 H5          52.2400    -4.7510    21.9620 hc         1 NZ9       0.076200
     21 H6          51.9070    -3.9430    20.3520 hc         1 NZ9       0.076200
     22 H7          49.4270    -4.0130    20.8310 hc         1 NZ9       0.076200
     23 H8          49.7620    -4.8240    22.4390 hc         1 NZ9       0.076200
@<TRIPOS>BOND
     1     1     2 2   
     2     1     5 1   
     3     1    16 1   
     4     2     3 1   
     5     2    17 1   
     6     3     4 1   
     7     4     5 2   
     8     4    13 1   
     9     5     6 1   
    10     6     7 2   
    11     6     8 2   
    12     6     9 1   
    13     9    10 1   
    14     9    18 1   
    15    10    11 1   
    16    10    12 1   
    17    10    19 1   
    18    11    12 1   
    19    11    20 1   
    20    11    21 1   
    21    12    22 1   
    22    12    23 1   
    23    13    14 1   
    24    13    15 1   
@<TRIPOS>SUBSTRUCTURE
     1 NZ9         1 TEMP              0 ****  ****    0 ROOT
