@<TRIPOS>MOLECULE
NZ9
   23    24     1     0     0
SMALL
abcg2


@<TRIPOS>ATOM
      1 C01         53.1300    -0.0970    22.3550 cc         1 NZ9      -0.066000
      2 C02         52.9780     1.1250    21.7650 cd         1 NZ9      -0.314000
      3 S03         51.4520     1.8190    22.1240 ss         1 NZ9       0.245000
      4 C04         50.9710     0.4710    23.0900 cd         1 NZ9      -0.125600
      5 C05         51.9840    -0.4680    23.1130 cc         1 NZ9      -0.346500
      6 S06         51.9610    -2.0100    23.9850 sy         1 NZ9       1.203600
      7 O07         51.9750    -1.7270    25.4020 o          1 NZ9      -0.577500
      8 O08         53.0300    -2.8170    23.4410 o          1 NZ9      -0.577500
      9 N09         50.5330    -2.7300    23.6740 n7         1 NZ9      -0.848300
     10 C10         50.1670    -3.2260    22.3490 cx         1 NZ9       0.177500
     11 C11         50.9140    -2.9790    21.0690 cx         1 NZ9      -0.155900
     12 C12         50.8680    -4.3640    21.6810 cx         1 NZ9      -0.155900
     13 C13         49.5880     0.5360    23.7030 c          1 NZ9       0.727600
     14 O14         48.9590     1.5950    23.4900 o          1 NZ9      -0.692000
     15 O15         49.1810    -0.4570    24.3640 o          1 NZ9      -0.692000
     16 H1          54.0080    -0.7170    22.2580 ha         1 NZ9       0.134000
     17 H2          53.6840     1.6450    21.1380 h4         1 NZ9       0.128000
     18 H3          49.8280    -2.0540    24.0200 hn         1 NZ9       0.545000
     19 H4          49.0890    -3.2150    22.2710 h1         1 NZ9       0.084700
     20 H5          51.8610    -2.4610    21.1090 hc         1 NZ9       0.076200
     21 H6          50.3250    -2.7760    20.1850 hc         1 NZ9       0.076200
     22 H7          50.2600    -5.1260    21.2110 hc         1 NZ9       0.076200
     23 H8          51.7820    -4.7150    22.1390 hc         1 NZ9       0.076200
@<TRIPOS>BOND
     1     1     2 2   
     2     1     5 1   
     3     1    16 1   
     4     2     3 1   
     5     2    17 1   
     6     3     4 1   
     7     4     5 2   
     8     4    13 1   
     9     5     6 1   
    10     6     7 2   
    11     6     8 2   
    12     6     9 1   
    13     9    10 1   
    14     9    18 1   
    15    10    11 1   
    16    10    12 1   
    17    10    19 1   
    18    11    12 1   
    19    11    20 1   
    20    11    21 1   
    21    12    22 1   
    22    12    23 1   
    23    13    14 1   
    24    13    15 1   
@<TRIPOS>SUBSTRUCTURE
     1 NZ9         1 TEMP              0 ****  ****    0 ROOT
