@<TRIPOS>MOLECULE
NZA
   42    45     1     0     0
SMALL
No Charge or Current Charge


@<TRIPOS>ATOM
      1 CAM         -3.8900     1.1700     1.2700 ca         1 NZA      -0.074500
      2 CAJ         -4.9020     0.8960     0.3330 ca         1 NZA      -0.114000
      3 CAT         -4.5770     0.3130    -0.9010 ca         1 NZA       0.123000
      4 ClAC        -5.8440    -0.0290    -2.0720 cl         1 NZA      -0.233000
      5 CAK         -3.2420     0.0040    -1.2020 ca         1 NZA      -0.114000
      6 CAN         -2.2270     0.2770    -0.2680 ca         1 NZA      -0.074500
      7 CAV         -2.5440     0.8620     0.9820 ca         1 NZA      -0.102300
      8 CAQ         -1.4760     1.1770     2.0350 c3         1 NZA       0.121900
      9 NBB         -0.1240     0.6590     1.7370 na         1 NZA      -0.062700
     10 CAY          0.3800    -0.6480     1.9990 cc         1 NZA      -0.003300
     11 CAS         -0.2590    -1.7970     2.7360 c          1 NZA       0.724200
     12 OAB         -1.3850    -1.6430     3.1890 o          1 NZA      -0.686500
     13 OAA          0.3460    -2.8470     2.9000 o          1 NZA      -0.686500
     14 CBA          0.7960     1.4210     1.0100 ca         1 NZA      -0.072200
     15 CAO          0.7020     2.7390     0.5260 ca         1 NZA      -0.117000
     16 CAL          1.7940     3.2560    -0.2060 ca         1 NZA      -0.123000
     17 CAU          2.9400     2.4620    -0.4430 ca         1 NZA       0.091000
     18 ClAD         4.2870     3.1250    -1.3600 cl         1 NZA      -0.252000
     19 CAP          3.0080     1.1420     0.0440 ca         1 NZA      -0.061000
     20 CAZ          1.9070     0.6650     0.7660 ca         1 NZA      -0.045800
     21 CAX          1.6310    -0.6090     1.3680 cd         1 NZA      -0.119600
     22 SAR          2.6800    -2.0260     1.1930 ss         1 NZA      -0.029600
     23 CAW          2.1080    -2.2800    -0.4870 ca         1 NZA      -0.081000
     24 CAH          0.7810    -2.6750    -0.7460 ca         1 NZA      -0.095000
     25 CAF          0.3410    -2.8510    -2.0700 ca         1 NZA      -0.113500
     26 CAE          1.2280    -2.6390    -3.1390 ca         1 NZA      -0.139000
     27 CAG          2.5550    -2.2540    -2.8840 ca         1 NZA      -0.113500
     28 CAI          2.9950    -2.0760    -1.5600 ca         1 NZA      -0.095000
     29 HAM         -4.1530     1.6210     2.2250 ha         1 NZA       0.134500
     30 HAJ         -5.9370     1.1360     0.5650 ha         1 NZA       0.122000
     31 HAK         -2.9930    -0.4460    -2.1590 ha         1 NZA       0.122000
     32 HAN         -1.2010     0.0290    -0.5290 ha         1 NZA       0.134500
     33 HAQ1        -1.4180     2.2640     2.1650 h1         1 NZA       0.076700
     34 HAQ2        -1.7980     0.7810     3.0040 h1         1 NZA       0.076700
     35 HAO         -0.1800     3.3510     0.6970 ha         1 NZA       0.105000
     36 HAL          1.7520     4.2720    -0.5920 ha         1 NZA       0.109000
     37 HAP          3.8790     0.5200    -0.1370 ha         1 NZA       0.134000
     38 HAH          0.0900    -2.8460     0.0750 ha         1 NZA       0.124500
     39 HAF         -0.6850    -3.1520    -2.2650 ha         1 NZA       0.096500
     40 HAE          0.8880    -2.7750    -4.1630 ha         1 NZA       0.093000
     41 HAG          3.2430    -2.0910    -3.7110 ha         1 NZA       0.096500
     42 HAI          4.0220    -1.7760    -1.3680 ha         1 NZA       0.124500
@<TRIPOS>BOND
     1     1     2 ar  
     2     1     7 ar  
     3     1    29 1   
     4     2     3 ar  
     5     2    30 1   
     6     3     4 1   
     7     3     5 ar  
     8     5     6 ar  
     9     5    31 1   
    10     6     7 ar  
    11     6    32 1   
    12     7     8 1   
    13     8     9 1   
    14     8    33 1   
    15     8    34 1   
    16     9    10 1   
    17     9    14 1   
    18    10    11 1   
    19    10    21 2   
    20    11    12 1   
    21    11    13 1   
    22    14    15 ar  
    23    14    20 ar  
    24    15    16 ar  
    25    15    35 1   
    26    16    17 ar  
    27    16    36 1   
    28    17    18 1   
    29    17    19 ar  
    30    19    20 ar  
    31    19    37 1   
    32    20    21 1   
    33    21    22 1   
    34    22    23 1   
    35    23    24 ar  
    36    23    28 ar  
    37    24    25 ar  
    38    24    38 1   
    39    25    26 ar  
    40    25    39 1   
    41    26    27 ar  
    42    26    40 1   
    43    27    28 ar  
    44    27    41 1   
    45    28    42 1   
@<TRIPOS>SUBSTRUCTURE
     1 NZA         1 TEMP              0 ****  ****    0 ROOT
