@<TRIPOS>MOLECULE
NZA
   42    45     1     0     0
SMALL
bcc


@<TRIPOS>ATOM
      1 CAM         -3.4860    -0.0130     1.3730 ca         1 NZA      -0.092500
      2 CAJ         -4.4440    -0.4090     0.4490 ca         1 NZA      -0.132000
      3 CAT         -4.5030     0.2340    -0.7760 ca         1 NZA       0.031400
      4 CLAC        -5.6920    -0.2550    -1.9400 cl         1 NZA      -0.141400
      5 CAK         -3.6290     1.2650    -1.0870 ca         1 NZA      -0.132000
      6 CAN         -2.6840     1.6500    -0.1500 ca         1 NZA      -0.092500
      7 CAV         -2.5980     1.0160     1.0880 ca         1 NZA      -0.102300
      8 CAQ         -1.5440     1.4220     2.0860 c3         1 NZA       0.092600
      9 NBB         -0.2180     0.9830     1.6810 na         1 NZA      -0.033400
     10 CAY          0.2440    -0.3050     1.7120 cc         1 NZA      -0.003300
     11 CAS         -0.4800    -1.4450     2.4010 c          1 NZA       0.934800
     12 OAB         -1.0300    -1.1710     3.4850 o          1 NZA      -0.791800
     13 OAA         -0.4200    -2.5380     1.8250 o          1 NZA      -0.791800
     14 CBA          0.6790     1.7740     1.0060 ca         1 NZA      -0.072200
     15 CAO          0.6420     3.1330     0.7000 ca         1 NZA      -0.135000
     16 CAL          1.7140     3.6740     0.0160 ca         1 NZA      -0.141000
     17 CAU          2.7960     2.8650    -0.3560 ca         1 NZA      -0.000600
     18 CLAD         4.1210     3.6000    -1.2110 cl         1 NZA      -0.160400
     19 CAP          2.8450     1.5190    -0.0670 ca         1 NZA      -0.079000
     20 CAZ          1.7650     0.9660     0.6220 ca         1 NZA      -0.045800
     21 CAX          1.4630    -0.3540     1.0710 cd         1 NZA      -0.119600
     22 SAR          2.5410    -1.7140     0.9290 ss         1 NZA      -0.156500
     23 CAW          2.1170    -2.4280    -0.6350 ca         1 NZA       0.045900
     24 CAH          0.8820    -2.2390    -1.2470 ca         1 NZA      -0.113000
     25 CAF          0.6160    -2.8490    -2.4650 ca         1 NZA      -0.131500
     26 CAE          1.5630    -3.6660    -3.0710 ca         1 NZA      -0.157000
     27 CAG          2.7890    -3.8640    -2.4500 ca         1 NZA      -0.131500
     28 CAI          3.0710    -3.2420    -1.2410 ca         1 NZA      -0.113000
     29 HAM         -3.4330    -0.5210     2.3280 ha         1 NZA       0.152500
     30 HAJ         -5.1310    -1.2100     0.6840 ha         1 NZA       0.140000
     31 HAK         -3.6850     1.7660    -2.0430 ha         1 NZA       0.140000
     32 HAN         -2.0090     2.4610    -0.3950 ha         1 NZA       0.152500
     33 HAQ1        -1.5160     2.5060     2.1930 h1         1 NZA       0.076700
     34 HAQ2        -1.7620     1.0090     3.0660 h1         1 NZA       0.076700
     35 HAO         -0.1840     3.7710     0.9850 ha         1 NZA       0.123000
     36 HAL          1.7160     4.7260    -0.2310 ha         1 NZA       0.127000
     37 HAP          3.6870     0.9060    -0.3630 ha         1 NZA       0.152000
     38 HAH          0.1320    -1.6230    -0.7710 ha         1 NZA       0.142500
     39 HAF         -0.3450    -2.6920    -2.9370 ha         1 NZA       0.114500
     40 HAE          1.3470    -4.1420    -4.0180 ha         1 NZA       0.111000
     41 HAG          3.5380    -4.4950    -2.9110 ha         1 NZA       0.114500
     42 HAI          4.0400    -3.3880    -0.7760 ha         1 NZA       0.142500
@<TRIPOS>BOND
     1     1     2 ar  
     2     1     7 ar  
     3     1    29 1   
     4     2     3 ar  
     5     2    30 1   
     6     3     4 1   
     7     3     5 ar  
     8     5     6 ar  
     9     5    31 1   
    10     6     7 ar  
    11     6    32 1   
    12     7     8 1   
    13     8     9 1   
    14     8    33 1   
    15     8    34 1   
    16     9    10 1   
    17     9    14 1   
    18    10    11 1   
    19    10    21 2   
    20    11    12 1   
    21    11    13 1   
    22    14    15 ar  
    23    14    20 ar  
    24    15    16 ar  
    25    15    35 1   
    26    16    17 ar  
    27    16    36 1   
    28    17    18 1   
    29    17    19 ar  
    30    19    20 ar  
    31    19    37 1   
    32    20    21 1   
    33    21    22 1   
    34    22    23 1   
    35    23    24 ar  
    36    23    28 ar  
    37    24    25 ar  
    38    24    38 1   
    39    25    26 ar  
    40    25    39 1   
    41    26    27 ar  
    42    26    40 1   
    43    27    28 ar  
    44    27    41 1   
    45    28    42 1   
@<TRIPOS>SUBSTRUCTURE
     1 NZA         1 TEMP              0 ****  ****    0 ROOT
