@<TRIPOS>MOLECULE
NZB
   52    55     1     0     0
SMALL
No Charge or Current Charge


@<TRIPOS>ATOM
      1 C3           3.5490    45.9440    59.6000 cc         1 NZB      -0.141300
      2 C2           2.2750    45.4410    60.2420 c3         1 NZB       0.234000
      3 C1           0.7110    46.1450    58.4480 c3         1 NZB       0.150600
      4 N1           4.6410    45.1490    59.2640 na         1 NZB       0.017500
      5 C6           5.1770    49.6070    58.4800 ca         1 NZB      -0.076000
      6 C5           5.8440    48.3700    58.3510 ca         1 NZB      -0.094000
      7 C4           5.1870    47.2010    58.7630 ca         1 NZB      -0.069000
      8 C7           3.8570    49.6880    59.0120 cp         1 NZB      -0.040000
      9 C16          5.3510    52.5010    61.6610 c3         1 NZB       0.166600
     10 C17          6.5440    51.7020    62.2280 c3         1 NZB      -0.025100
     11 C18          6.2640    50.1990    62.3040 ca         1 NZB      -0.136300
     12 C15          3.7450    52.0920    59.8510 ca         1 NZB       0.187100
     13 C14          3.0630    53.3130    60.0030 ca         1 NZB      -0.250000
     14 C19          7.0740    49.2790    61.6120 ca         1 NZB      -0.047000
     15 C10          3.1570    51.0020    59.1540 cp         1 NZB      -0.089000
     16 C9           3.9150    47.2780    59.2740 ca         1 NZB      -0.140000
     17 C8           3.2190    48.4860    59.4110 ca         1 NZB      -0.046000
     18 C13          1.7840    53.4610    59.4510 ca         1 NZB       0.212000
     19 C12          1.1790    52.3990    58.7640 ca         1 NZB      -0.193000
     20 C11          1.8570    51.1770    58.6210 ca         1 NZB      -0.042000
     21 N2           5.6960    45.9000    58.7280 nc         1 NZB      -0.281400
     22 F            1.1280    54.6320    59.5890 f          1 NZB      -0.178000
     23 N            1.2260    45.0280    59.2720 n3         1 NZB      -0.718600
     24 C            1.5890    43.8400    58.4670 c3         1 NZB       0.150600
     25 C22          5.1660    49.7040    63.0390 ca         1 NZB       0.333900
     26 N3           4.8480    48.3900    63.1130 nb         1 NZB      -0.668000
     27 C21          5.6250    47.5180    62.4320 ca         1 NZB       0.330900
     28 C20          6.7440    47.9160    61.6830 ca         1 NZB      -0.161000
     29 H1           1.8850    46.2330    60.8960 h1         1 NZB       0.066700
     30 H2           2.5260    44.5980    60.9020 h1         1 NZB       0.066700
     31 H3           0.3720    46.9740    59.0840 h1         1 NZB       0.034867
     32 H4           1.4860    46.5250    57.7690 h1         1 NZB       0.034867
     33 H5          -0.1430    45.8160    57.8410 h1         1 NZB       0.034867
     34 H6           4.7180    44.1420    59.3750 hn         1 NZB       0.369000
     35 H7           5.6830    50.5160    58.1650 ha         1 NZB       0.118000
     36 H8           6.8520    48.3250    57.9470 ha         1 NZB       0.128000
     37 H9           5.6320    53.5520    61.5130 h1         1 NZB       0.040700
     38 H10          4.5180    52.4600    62.3760 h1         1 NZB       0.040700
     39 H11          7.4230    51.9000    61.6020 hc         1 NZB       0.060700
     40 H12          6.7840    52.0890    63.2250 hc         1 NZB       0.060700
     41 H13          3.5130    54.1450    60.5350 ha         1 NZB       0.135000
     42 H14          7.9260    49.6100    61.0230 ha         1 NZB       0.133000
     43 H15          2.2170    48.5050    59.8310 ha         1 NZB       0.117000
     44 H16          0.1830    52.5240    58.3460 ha         1 NZB       0.135000
     45 H17          1.3780    50.3580    58.0870 ha         1 NZB       0.122000
     46 H19          1.9060    43.0120    59.1140 h1         1 NZB       0.034867
     47 H20          0.7290    43.4960    57.8770 h1         1 NZB       0.034867
     48 H21          2.4080    44.0690    57.7710 h1         1 NZB       0.034867
     49 H22          4.5140    50.3830    63.5880 h4         1 NZB       0.012100
     50 H23          5.3460    46.4660    62.4960 h4         1 NZB       0.015100
     51 H24          7.3350    47.1740    61.1540 ha         1 NZB       0.125000
     52 O            4.9790    51.8820    60.4210 os         1 NZB      -0.341100
@<TRIPOS>BOND
     1     1     2 1   
     2     1     4 1   
     3     1    16 2   
     4     2    23 1   
     5     2    29 1   
     6     2    30 1   
     7     3    23 1   
     8     3    31 1   
     9     3    32 1   
    10     3    33 1   
    11     4    21 1   
    12     4    34 1   
    13     5     6 ar  
    14     5     8 ar  
    15     5    35 1   
    16     6     7 ar  
    17     6    36 1   
    18     7    16 ar  
    19     7    21 2   
    20     8    15 1   
    21     8    17 ar  
    22     9    10 1   
    23     9    37 1   
    24     9    38 1   
    25     9    52 1   
    26    10    11 1   
    27    10    39 1   
    28    10    40 1   
    29    11    14 ar  
    30    11    25 ar  
    31    12    13 ar  
    32    12    15 ar  
    33    12    52 1   
    34    13    18 ar  
    35    13    41 1   
    36    14    28 ar  
    37    14    42 1   
    38    15    20 ar  
    39    16    17 ar  
    40    17    43 1   
    41    18    19 ar  
    42    18    22 1   
    43    19    20 ar  
    44    19    44 1   
    45    20    45 1   
    46    23    24 1   
    47    24    46 1   
    48    24    47 1   
    49    24    48 1   
    50    25    26 ar  
    51    25    49 1   
    52    26    27 ar  
    53    27    28 ar  
    54    27    50 1   
    55    28    51 1   
@<TRIPOS>SUBSTRUCTURE
     1 NZB         1 TEMP              0 ****  ****    0 ROOT
