@<TRIPOS>MOLECULE
NZB
   52    55     1     0     0
SMALL
abcg2


@<TRIPOS>ATOM
      1 C3           3.6280    45.9710    59.4020 cc         1 NZB      -0.141300
      2 C2           2.4310    45.3270    60.0340 c3         1 NZB       0.234000
      3 C1           0.7440    46.0070    58.4300 c3         1 NZB       0.150600
      4 N1           4.7080    45.2910    58.9930 na         1 NZB       0.017500
      5 C6           5.1110    49.6200    58.1770 ca         1 NZB      -0.076000
      6 C5           5.7890    48.4500    57.9930 ca         1 NZB      -0.094000
      7 C4           5.1880    47.2570    58.4590 ca         1 NZB      -0.069000
      8 C7           3.8310    49.6750    58.8110 cp         1 NZB      -0.040000
      9 C16          5.4470    52.3730    61.4740 c3         1 NZB       0.166600
     10 C17          6.6410    51.6030    62.0130 c3         1 NZB      -0.025100
     11 C18          6.2590    50.2510    62.5460 ca         1 NZB      -0.136300
     12 C15          3.7240    51.9390    59.8710 ca         1 NZB       0.187100
     13 C14          3.0560    53.1300    60.1380 ca         1 NZB      -0.250000
     14 C19          6.1520    49.1330    61.7250 ca         1 NZB      -0.047000
     15 C10          3.1540    50.9750    59.0220 cp         1 NZB      -0.089000
     16 C9           3.9030    47.2970    59.0650 ca         1 NZB      -0.140000
     17 C8           3.2280    48.5230    59.2410 ca         1 NZB      -0.046000
     18 C13          1.8220    53.3390    59.5480 ca         1 NZB       0.212000
     19 C12          1.2310    52.4260    58.7040 ca         1 NZB      -0.193000
     20 C11          1.9180    51.2430    58.4540 ca         1 NZB      -0.042000
     21 N2           5.6660    46.0110    58.4240 nc         1 NZB      -0.281400
     22 F            1.1800    54.4860    59.8210 f          1 NZB      -0.178000
     23 N            1.3810    44.9090    59.1230 n3         1 NZB      -0.718600
     24 C            1.7900    43.8610    58.2160 c3         1 NZB       0.150600
     25 C22          5.9610    50.0760    63.8940 ca         1 NZB       0.333900
     26 N3           5.5830    48.9230    64.4330 nb         1 NZB      -0.668000
     27 C21          5.4840    47.8690    63.6320 ca         1 NZB       0.330900
     28 C20          5.7600    47.9230    62.2740 ca         1 NZB      -0.161000
     29 H1           2.0030    46.0320    60.7510 h1         1 NZB       0.066700
     30 H2           2.7530    44.4530    60.6080 h1         1 NZB       0.066700
     31 H3           0.4090    46.7600    59.1450 h1         1 NZB       0.034867
     32 H4           1.3900    46.5040    57.6920 h1         1 NZB       0.034867
     33 H5          -0.1370    45.6400    57.8990 h1         1 NZB       0.034867
     34 H6           4.8480    44.2950    59.0960 hn         1 NZB       0.369000
     35 H7           5.5520    50.5450    57.8250 ha         1 NZB       0.118000
     36 H8           6.7570    48.4340    57.5100 ha         1 NZB       0.128000
     37 H9           5.7620    53.3650    61.1320 h1         1 NZB       0.040700
     38 H10          4.6960    52.5100    62.2600 h1         1 NZB       0.040700
     39 H11          7.3930    51.5020    61.2270 hc         1 NZB       0.060700
     40 H12          7.0890    52.2070    62.8040 hc         1 NZB       0.060700
     41 H13          3.4690    53.8860    60.7930 ha         1 NZB       0.135000
     42 H14          6.3730    49.2050    60.6680 ha         1 NZB       0.133000
     43 H15          2.2620    48.5570    59.7310 ha         1 NZB       0.117000
     44 H16          0.2660    52.6220    58.2560 ha         1 NZB       0.135000
     45 H17          1.4730    50.5040    57.7990 ha         1 NZB       0.122000
     46 H19          2.2320    43.0330    58.7740 h1         1 NZB       0.034867
     47 H20          0.9180    43.4760    57.6860 h1         1 NZB       0.034867
     48 H21          2.5180    44.1840    57.4570 h1         1 NZB       0.034867
     49 H22          6.0390    50.9220    64.5730 h4         1 NZB       0.012100
     50 H23          5.1720    46.9370    64.0920 h4         1 NZB       0.015100
     51 H24          5.6650    47.0370    61.6600 ha         1 NZB       0.125000
     52 O            4.9120    51.6200    60.4010 os         1 NZB      -0.341100
@<TRIPOS>BOND
     1     1     2 1   
     2     1     4 1   
     3     1    16 2   
     4     2    23 1   
     5     2    29 1   
     6     2    30 1   
     7     3    23 1   
     8     3    31 1   
     9     3    32 1   
    10     3    33 1   
    11     4    21 1   
    12     4    34 1   
    13     5     6 ar  
    14     5     8 ar  
    15     5    35 1   
    16     6     7 ar  
    17     6    36 1   
    18     7    16 ar  
    19     7    21 2   
    20     8    15 1   
    21     8    17 ar  
    22     9    10 1   
    23     9    37 1   
    24     9    38 1   
    25     9    52 1   
    26    10    11 1   
    27    10    39 1   
    28    10    40 1   
    29    11    14 ar  
    30    11    25 ar  
    31    12    13 ar  
    32    12    15 ar  
    33    12    52 1   
    34    13    18 ar  
    35    13    41 1   
    36    14    28 ar  
    37    14    42 1   
    38    15    20 ar  
    39    16    17 ar  
    40    17    43 1   
    41    18    19 ar  
    42    18    22 1   
    43    19    20 ar  
    44    19    44 1   
    45    20    45 1   
    46    23    24 1   
    47    24    46 1   
    48    24    47 1   
    49    24    48 1   
    50    25    26 ar  
    51    25    49 1   
    52    26    27 ar  
    53    27    28 ar  
    54    27    50 1   
    55    28    51 1   
@<TRIPOS>SUBSTRUCTURE
     1 NZB         1 TEMP              0 ****  ****    0 ROOT
