@<TRIPOS>MOLECULE
NZC
   19    18     1     0     0
SMALL
abcg2


@<TRIPOS>ATOM
      1 N          -25.0330    62.2170   -27.0210 n7         1 NZC      -0.867400
      2 O          -26.6490    61.6860   -24.8320 o          1 NZC      -0.734500
      3 OG1        -27.0720    64.5000   -27.3050 oh         1 NZC      -0.643000
      4 C          -26.3790    62.8960   -24.9600 c          1 NZC       0.710000
      5 CA         -25.3830    63.2830   -26.0960 c3         1 NZC       0.036500
      6 CB         -25.7560    64.5970   -26.7840 c3         1 NZC       0.191300
      7 CG2        -24.7560    65.0050   -27.8570 c3         1 NZC      -0.118100
      8 C40        -26.0800    61.7410   -27.9080 c3         1 NZC       0.170100
      9 OXT        -26.7680    63.8250   -24.2230 o          1 NZC      -0.734500
     10 HG1        -27.2920    65.3440   -27.7100 ho         1 NZC       0.406000
     11 HA         -24.4480    63.5210   -25.5680 h1         1 NZC       0.032700
     12 HB         -25.7310    65.3640   -26.0000 h1         1 NZC       0.037700
     13 HG2        -23.7500    65.0710   -27.4410 hc         1 NZC       0.021367
     14 HG2A       -24.7300    64.2960   -28.6850 hc         1 NZC       0.021367
     15 HG2B       -25.0060    65.9880   -28.2630 hc         1 NZC       0.021367
     16 H40        -25.7640    60.7870   -28.3330 h1         1 NZC       0.013700
     17 H40A       -27.0520    61.5820   -27.4300 h1         1 NZC       0.013700
     18 H40B       -26.2270    62.4250   -28.7430 h1         1 NZC       0.013700
     19 H          -24.7320    61.4340   -26.4580 hn         1 NZC       0.406000
@<TRIPOS>BOND
     1     1     5 1   
     2     1     8 1   
     3     1    19 1   
     4     2     4 1   
     5     3     6 1   
     6     3    10 1   
     7     4     5 1   
     8     4     9 1   
     9     5     6 1   
    10     5    11 1   
    11     6     7 1   
    12     6    12 1   
    13     7    13 1   
    14     7    14 1   
    15     7    15 1   
    16     8    16 1   
    17     8    17 1   
    18     8    18 1   
@<TRIPOS>SUBSTRUCTURE
     1 NZC         1 TEMP              0 ****  ****    0 ROOT
