@<TRIPOS>MOLECULE
NZC
   19    18     1     0     0
SMALL
No Charge or Current Charge


@<TRIPOS>ATOM
      1 N          -25.0300    62.1080   -27.0220 n7         1 NZC      -0.867400
      2 O          -26.6850    61.7550   -24.7050 o          1 NZC      -0.734500
      3 OG1        -27.0730    64.5330   -27.3950 oh         1 NZC      -0.643000
      4 C          -26.3520    62.9210   -24.8860 c          1 NZC       0.710000
      5 CA         -25.3640    63.2630   -26.0800 c3         1 NZC       0.036500
      6 CB         -25.7710    64.6070   -26.7910 c3         1 NZC       0.191300
      7 CG2        -24.7530    65.0840   -27.8510 c3         1 NZC      -0.118100
      8 C40        -26.0860    61.6610   -27.9540 c3         1 NZC       0.170100
      9 OXT        -26.6850    63.8200   -24.1220 o          1 NZC      -0.734500
     10 HG1        -27.2180    65.3860   -27.8550 ho         1 NZC       0.406000
     11 HA         -24.4270    63.5010   -25.5580 h1         1 NZC       0.032700
     12 HB         -25.7900    65.3850   -26.0140 h1         1 NZC       0.037700
     13 HG2        -23.7510    65.1620   -27.4110 hc         1 NZC       0.021367
     14 HG2A       -24.7030    64.3910   -28.6990 hc         1 NZC       0.021367
     15 HG2B       -25.0300    66.0730   -28.2340 hc         1 NZC       0.021367
     16 H40        -25.7640    60.7540   -28.4830 h1         1 NZC       0.013700
     17 H40A       -27.0170    61.4300   -27.4210 h1         1 NZC       0.013700
     18 H40B       -26.2980    62.4260   -28.7130 h1         1 NZC       0.013700
     19 H          -24.8100    61.3020   -26.4220 hn         1 NZC       0.406000
@<TRIPOS>BOND
     1     1     5 1   
     2     1     8 1   
     3     1    19 1   
     4     2     4 1   
     5     3     6 1   
     6     3    10 1   
     7     4     5 1   
     8     4     9 1   
     9     5     6 1   
    10     5    11 1   
    11     6     7 1   
    12     6    12 1   
    13     7    13 1   
    14     7    14 1   
    15     7    15 1   
    16     8    16 1   
    17     8    17 1   
    18     8    18 1   
@<TRIPOS>SUBSTRUCTURE
     1 NZC         1 TEMP              0 ****  ****    0 ROOT
