@<TRIPOS>MOLECULE
NZD
   33    34     1     0     0
SMALL
No Charge or Current Charge


@<TRIPOS>ATOM
      1 N1           4.1200     0.3600    -0.1990 n3         1 NZD      -0.712600
      2 N3          -1.0090     0.0970     0.0830 ns         1 NZD      -0.167000
      3 C4           1.6700     0.9570    -0.0120 c6         1 NZD       0.106500
      4 C5           3.1340     1.3070     0.3760 c6         1 NZD       0.146300
      5 C7          -2.4300     0.0860     0.0250 ca         1 NZD      -0.010000
      6 C8          -3.0920     1.3240     0.1400 ca         1 NZD      -0.143000
      7 C10         -5.2520     0.2270    -0.0770 ca         1 NZD      -0.135000
      8 C1           5.5170     0.7590     0.0810 c3         1 NZD       0.151100
      9 C11         -4.6050    -1.0130    -0.1960 ca         1 NZD      -0.086500
     10 C12         -3.2010    -1.0860    -0.1470 ca         1 NZD      -0.143000
     11 C2           3.8150    -1.0110     0.2820 c6         1 NZD       0.146300
     12 C3           2.3890    -1.4760    -0.1190 c6         1 NZD       0.106500
     13 C9          -4.4950     1.3970     0.0910 ca         1 NZD      -0.086500
     14 N2           1.2900    -0.4890     0.1270 n          1 NZD      -0.431800
     15 O1          -0.3340    -2.1060    -0.0090 o          1 NZD      -0.621100
     16 H2          -0.6170     1.0260     0.1540 hn         1 NZD       0.146000
     17 H3           1.0080     1.5810     0.6040 h1         1 NZD       0.055700
     18 H4           1.5120     1.2510    -1.0590 h1         1 NZD       0.055700
     19 H5           3.2120     1.3070     1.4740 h1         1 NZD       0.042450
     20 H6           3.3460     2.3330     0.0430 h1         1 NZD       0.042450
     21 H7          -2.5170     2.2390     0.2710 ha         1 NZD       0.121000
     22 H8          -6.3380     0.2810    -0.1160 ha         1 NZD       0.114000
     23 H9           6.2210     0.0590    -0.3880 h1         1 NZD       0.033033
     24 H10          5.7210     1.7610    -0.3180 h1         1 NZD       0.033033
     25 H11          5.7130     0.7730     1.1620 h1         1 NZD       0.033033
     26 H12         -5.1910    -1.9200    -0.3290 ha         1 NZD       0.112000
     27 H13         -2.7360    -2.0610    -0.2470 ha         1 NZD       0.121000
     28 H14          4.5420    -1.7310    -0.1200 h1         1 NZD       0.042450
     29 H15          3.9000    -1.0510     1.3790 h1         1 NZD       0.042450
     30 H16          2.3950    -1.7160    -1.1910 h1         1 NZD       0.055700
     31 H17          2.1720    -2.4120     0.4160 h1         1 NZD       0.055700
     32 H18         -4.9940     2.3590     0.1820 ha         1 NZD       0.112000
     33 C6          -0.0570    -0.9160     0.0590 c          1 NZD       0.666100
@<TRIPOS>BOND
     1     1     4 1   
     2     1     8 1   
     3     1    11 1   
     4     2     5 1   
     5     2    16 1   
     6     2    33 1   
     7     3     4 1   
     8     3    14 1   
     9     3    17 1   
    10     3    18 1   
    11     4    19 1   
    12     4    20 1   
    13     5     6 ar  
    14     5    10 ar  
    15     6    13 ar  
    16     6    21 1   
    17     7     9 ar  
    18     7    13 ar  
    19     7    22 1   
    20     8    23 1   
    21     8    24 1   
    22     8    25 1   
    23     9    10 ar  
    24     9    26 1   
    25    10    27 1   
    26    11    12 1   
    27    11    28 1   
    28    11    29 1   
    29    12    14 1   
    30    12    30 1   
    31    12    31 1   
    32    13    32 1   
    33    14    33 1   
    34    15    33 2   
@<TRIPOS>SUBSTRUCTURE
     1 NZD         1 TEMP              0 ****  ****    0 ROOT
