@<TRIPOS>MOLECULE
NZD
   33    34     1     0     0
SMALL
bcc


@<TRIPOS>ATOM
      1 N1           4.0560     0.2970     0.0400 n3         1 NZD      -0.712600
      2 N3          -0.9200     0.4090    -0.2030 ns         1 NZD      -0.493100
      3 C4           1.7800     1.1640    -0.2310 c6         1 NZD       0.106500
      4 C5           3.0370     1.1440     0.6230 c6         1 NZD       0.146300
      5 C7          -2.2910     0.2160    -0.0150 ca         1 NZD       0.082600
      6 C8          -3.1620     1.1880    -0.5110 ca         1 NZD      -0.161000
      7 C10         -5.0550     0.0050     0.3900 ca         1 NZD      -0.153000
      8 C1           5.2840     0.3460     0.8000 c3         1 NZD       0.151100
      9 C11         -4.1900    -0.9600     0.8870 ca         1 NZD      -0.104500
     10 C12         -2.8190    -0.8610     0.6990 ca         1 NZD      -0.161000
     11 C2           3.5560    -1.0570    -0.0860 c6         1 NZD       0.146300
     12 C3           2.3210    -1.0870    -0.9660 c6         1 NZD       0.106500
     13 C9          -4.5290     1.0850    -0.3050 ca         1 NZD      -0.104500
     14 N2           1.3020    -0.1880    -0.4550 n          1 NZD      -0.498800
     15 O1          -0.3260    -1.7640    -0.5170 o          1 NZD      -0.621100
     16 H2          -0.6650     1.3440    -0.4750 hn         1 NZD       0.312500
     17 H3           1.0380     1.7570     0.2990 h1         1 NZD       0.055700
     18 H4           1.9880     1.6570    -1.1880 h1         1 NZD       0.055700
     19 H5           2.7700     0.8170     1.6430 h1         1 NZD       0.042450
     20 H6           3.4170     2.1650     0.7000 h1         1 NZD       0.042450
     21 H7          -2.7650     2.0340    -1.0610 ha         1 NZD       0.139000
     22 H8          -6.1220    -0.0810     0.5480 ha         1 NZD       0.132000
     23 H9           6.0460    -0.2690     0.3190 h1         1 NZD       0.033033
     24 H10          5.6580     1.3700     0.8400 h1         1 NZD       0.033033
     25 H11          5.1680    -0.0100     1.8350 h1         1 NZD       0.033033
     26 H12         -4.5820    -1.8040     1.4410 ha         1 NZD       0.130000
     27 H13         -2.1720    -1.6170     1.1180 ha         1 NZD       0.139000
     28 H14          4.3250    -1.6840    -0.5440 h1         1 NZD       0.042450
     29 H15          3.3160    -1.4980     0.8970 h1         1 NZD       0.042450
     30 H16          2.5950    -0.7850    -1.9830 h1         1 NZD       0.055700
     31 H17          1.9260    -2.0980    -1.0120 h1         1 NZD       0.055700
     32 H18         -5.1830     1.8530    -0.6980 ha         1 NZD       0.130000
     33 C6           0.0040    -0.5920    -0.4040 c          1 NZD       0.800100
@<TRIPOS>BOND
     1     1     4 1   
     2     1     8 1   
     3     1    11 1   
     4     2     5 1   
     5     2    16 1   
     6     2    33 1   
     7     3     4 1   
     8     3    14 1   
     9     3    17 1   
    10     3    18 1   
    11     4    19 1   
    12     4    20 1   
    13     5     6 ar  
    14     5    10 ar  
    15     6    13 ar  
    16     6    21 1   
    17     7     9 ar  
    18     7    13 ar  
    19     7    22 1   
    20     8    23 1   
    21     8    24 1   
    22     8    25 1   
    23     9    10 ar  
    24     9    26 1   
    25    10    27 1   
    26    11    12 1   
    27    11    28 1   
    28    11    29 1   
    29    12    14 1   
    30    12    30 1   
    31    12    31 1   
    32    13    32 1   
    33    14    33 1   
    34    15    33 2   
@<TRIPOS>SUBSTRUCTURE
     1 NZD         1 TEMP              0 ****  ****    0 ROOT
