@<TRIPOS>MOLECULE
NZE
   50    53     1     0     0
SMALL
bcc


@<TRIPOS>ATOM
      1 C2          28.1700    42.2180    68.0610 c3         1 NZE       0.163500
      2 C4          28.9140    43.4430    64.6360 ca         1 NZE      -0.037200
      3 C5          28.5850    43.7780    63.3180 ca         1 NZE      -0.147000
      4 C1          27.3700    40.0590    67.2910 c3         1 NZE       0.155600
      5 C3          28.6770    42.7520    66.7540 cc         1 NZE       0.313900
      6 C8          26.6240    42.8160    65.1330 ca         1 NZE      -0.049000
      7 C14         22.8340    43.8440    62.4120 ca         1 NZE      -0.269000
      8 C15         24.1490    44.0330    62.8270 ca         1 NZE       0.178100
      9 C16         24.1510    46.2960    62.0890 c3         1 NZE       0.119400
     10 C18         26.4790    46.8480    60.0170 cc         1 NZE      -0.270600
     11 C13         22.2620    42.5940    62.5630 ca         1 NZE       0.174900
     12 C12         22.9380    41.5260    63.1080 ca         1 NZE      -0.205000
     13 C11         24.2520    41.7370    63.5110 ca         1 NZE      -0.063000
     14 O           24.7770    45.2180    62.7530 os         1 NZE      -0.309900
     15 C17         25.1290    47.4490    62.0520 c3         1 NZE       0.043300
     16 N3          26.3500    47.1230    61.3500 na         1 NZE      -0.186900
     17 C20         27.5710    46.9670    61.9040 cc         1 NZE       0.404400
     18 N4          28.4710    46.6220    61.0200 nd         1 NZE      -0.682000
     19 C19         27.7970    46.5430    59.8340 cd         1 NZE       0.298200
     20 C10         24.8820    42.9680    63.3800 cp         1 NZE      -0.073000
     21 C7          26.2790    43.1460    63.8370 cp         1 NZE      -0.067000
     22 C6          27.2730    43.6200    62.9440 ca         1 NZE      -0.067000
     23 C9          27.9560    42.9600    65.5410 ca         1 NZE      -0.228900
     24 N2          30.0780    43.4890    65.3230 na         1 NZE      -0.008100
     25 N1          29.9370    43.0820    66.5860 nd         1 NZE      -0.513100
     26 N           28.2130    40.7740    68.2220 n3         1 NZE      -0.719600
     27 C           29.5560    40.2420    68.2540 c3         1 NZE       0.155600
     28 H1          28.7500    42.6640    68.8720 h1         1 NZE       0.063700
     29 H2          27.1340    42.5420    68.1970 h1         1 NZE       0.063700
     30 H3          29.3220    44.1540    62.6200 ha         1 NZE       0.154000
     31 H4          27.3200    39.0070    67.5770 h1         1 NZE       0.031700
     32 H5          26.3550    40.4590    67.3190 h1         1 NZE       0.031700
     33 H6          27.7180    40.1000    66.2480 h1         1 NZE       0.031700
     34 H7          25.8700    42.4630    65.8270 ha         1 NZE       0.136000
     35 H8          22.2410    44.6450    61.9910 ha         1 NZE       0.150000
     36 H9          23.2480    46.6190    62.6180 h1         1 NZE       0.048200
     37 H10         23.8600    46.0090    61.0720 h1         1 NZE       0.048200
     38 H12         22.4680    40.5570    63.2110 ha         1 NZE       0.155000
     39 H13         24.8100    40.9090    63.9290 ha         1 NZE       0.142000
     40 H14         25.3940    47.7570    63.0630 h1         1 NZE       0.072700
     41 H15         24.6430    48.2980    61.5700 h1         1 NZE       0.072700
     42 H16         27.7410    47.1190    62.9590 h5         1 NZE       0.057100
     43 H17         28.2920    46.2780    58.9120 h4         1 NZE       0.037100
     44 H18         26.9930    43.8570    61.9260 ha         1 NZE       0.142000
     45 H19         30.9780    43.8010    64.9950 hn         1 NZE       0.327700
     46 H21         30.1480    40.7630    69.0080 h1         1 NZE       0.031700
     47 H22         29.5210    39.1870    68.5310 h1         1 NZE       0.031700
     48 H23         30.0930    40.3140    67.2970 h1         1 NZE       0.031700
     49 F           20.9920    42.4310    62.1600 f          1 NZE      -0.142900
     50 H11         25.6480    46.9000    59.3330 h4         1 NZE       0.172000
@<TRIPOS>BOND
     1     1     5 1   
     2     1    26 1   
     3     1    28 1   
     4     1    29 1   
     5     2     3 ar  
     6     2    23 ar  
     7     2    24 1   
     8     3    22 ar  
     9     3    30 1   
    10     4    26 1   
    11     4    31 1   
    12     4    32 1   
    13     4    33 1   
    14     5    23 1   
    15     5    25 2   
    16     6    21 ar  
    17     6    23 ar  
    18     6    34 1   
    19     7     8 ar  
    20     7    11 ar  
    21     7    35 1   
    22     8    14 1   
    23     8    20 ar  
    24     9    14 1   
    25     9    15 1   
    26     9    36 1   
    27     9    37 1   
    28    10    16 1   
    29    10    19 2   
    30    10    50 1   
    31    11    12 ar  
    32    11    49 1   
    33    12    13 ar  
    34    12    38 1   
    35    13    20 ar  
    36    13    39 1   
    37    15    16 1   
    38    15    40 1   
    39    15    41 1   
    40    16    17 1   
    41    17    18 2   
    42    17    42 1   
    43    18    19 1   
    44    19    43 1   
    45    20    21 1   
    46    21    22 ar  
    47    22    44 1   
    48    24    25 1   
    49    24    45 1   
    50    26    27 1   
    51    27    46 1   
    52    27    47 1   
    53    27    48 1   
@<TRIPOS>SUBSTRUCTURE
     1 NZE         1 TEMP              0 ****  ****    0 ROOT
