@<TRIPOS>MOLECULE
NZE
   50    53     1     0     0
SMALL
No Charge or Current Charge


@<TRIPOS>ATOM
      1 C2          28.1680    42.1980    68.0700 c3         1 NZE       0.163500
      2 C4          28.9490    43.4350    64.6580 ca         1 NZE      -0.037200
      3 C5          28.6050    43.7720    63.3450 ca         1 NZE      -0.129000
      4 C1          27.3380    39.9880    67.2730 c3         1 NZE       0.155600
      5 C3          28.7670    42.7270    66.7720 cc         1 NZE       0.313900
      6 C8          26.6890    42.7900    65.2040 ca         1 NZE      -0.031000
      7 C14         22.7720    43.7490    62.4250 ca         1 NZE      -0.251000
      8 C15         24.1100    43.9660    62.8170 ca         1 NZE       0.178100
      9 C16         24.1160    46.2720    61.9230 c3         1 NZE       0.142600
     10 C18         26.5900    47.2520    59.8710 cc         1 NZE      -0.238000
     11 C13         22.1630    42.5160    62.6870 ca         1 NZE       0.210000
     12 C12         22.8690    41.4980    63.3400 ca         1 NZE      -0.187000
     13 C11         24.2020    41.7090    63.7300 ca         1 NZE      -0.045000
     14 O           24.7420    45.1790    62.6190 os         1 NZE      -0.333100
     15 C17         25.0910    47.4660    61.9200 c3         1 NZE       0.072600
     16 N3          26.3640    47.1900    61.2300 na         1 NZE      -0.165500
     17 C20         27.5510    46.8230    61.8290 cc         1 NZE       0.404400
     18 N4          28.5040    46.6600    60.9200 nd         1 NZE      -0.682000
     19 C19         27.9100    46.9230    59.7030 cd         1 NZE       0.232900
     20 C10         24.8510    42.9410    63.4700 cp         1 NZE      -0.073000
     21 C7          26.2760    43.1240    63.8840 cp         1 NZE      -0.067000
     22 C6          27.2550    43.6080    62.9630 ca         1 NZE      -0.049000
     23 C9          28.0380    42.9620    65.5450 ca         1 NZE      -0.228900
     24 N2          30.1610    43.4900    65.3090 na         1 NZE      -0.058400
     25 N1          30.0660    43.0560    66.6380 nd         1 NZE      -0.513100
     26 N           28.1810    40.7100    68.2530 n3         1 NZE      -0.719600
     27 C           29.5460    40.1460    68.3560 c3         1 NZE       0.155600
     28 H1          28.7060    42.6730    68.9010 h1         1 NZE       0.063700
     29 H2          27.1350    42.5660    68.1330 h1         1 NZE       0.063700
     30 H3          29.3460    44.1440    62.6410 ha         1 NZE       0.136000
     31 H4          27.2960    38.9170    67.5130 h1         1 NZE       0.031700
     32 H5          26.3100    40.3750    67.2850 h1         1 NZE       0.031700
     33 H6          27.7360    40.0950    66.2550 h1         1 NZE       0.031700
     34 H7          25.9720    42.4190    65.9310 ha         1 NZE       0.118000
     35 H8          22.1910    44.5190    61.9270 ha         1 NZE       0.132000
     36 H9          23.1890    46.5730    62.4270 h1         1 NZE       0.048200
     37 H10         23.8780    45.9900    60.8890 h1         1 NZE       0.048200
     38 H12         22.3840    40.5460    63.5400 ha         1 NZE       0.137000
     39 H13         24.7440    40.9070    64.2260 ha         1 NZE       0.124000
     40 H14         25.3040    47.7580    62.9560 h1         1 NZE       0.072700
     41 H15         24.6070    48.3180    61.4290 h1         1 NZE       0.072700
     42 H16         27.6500    46.6980    62.9010 h5         1 NZE       0.057100
     43 H17         28.4640    46.8620    58.7740 h4         1 NZE       0.037100
     44 H18         26.9600    43.8490    61.9450 ha         1 NZE       0.124000
     45 H19         31.0450    43.8070    64.9120 hn         1 NZE       0.378000
     46 H21         30.1240    40.6640    69.1330 h1         1 NZE       0.031700
     47 H22         29.5060    39.0810    68.6190 h1         1 NZE       0.031700
     48 H23         30.0860    40.2410    67.4040 h1         1 NZE       0.031700
     49 F           20.8820    42.3100    62.3140 f          1 NZE      -0.178000
     50 H11         25.8280    47.5160    59.1480 h4         1 NZE       0.154000
@<TRIPOS>BOND
     1     1     5 1   
     2     1    26 1   
     3     1    28 1   
     4     1    29 1   
     5     2     3 ar  
     6     2    23 ar  
     7     2    24 1   
     8     3    22 ar  
     9     3    30 1   
    10     4    26 1   
    11     4    31 1   
    12     4    32 1   
    13     4    33 1   
    14     5    23 1   
    15     5    25 2   
    16     6    21 ar  
    17     6    23 ar  
    18     6    34 1   
    19     7     8 ar  
    20     7    11 ar  
    21     7    35 1   
    22     8    14 1   
    23     8    20 ar  
    24     9    14 1   
    25     9    15 1   
    26     9    36 1   
    27     9    37 1   
    28    10    16 1   
    29    10    19 2   
    30    10    50 1   
    31    11    12 ar  
    32    11    49 1   
    33    12    13 ar  
    34    12    38 1   
    35    13    20 ar  
    36    13    39 1   
    37    15    16 1   
    38    15    40 1   
    39    15    41 1   
    40    16    17 1   
    41    17    18 2   
    42    17    42 1   
    43    18    19 1   
    44    19    43 1   
    45    20    21 1   
    46    21    22 ar  
    47    22    44 1   
    48    24    25 1   
    49    24    45 1   
    50    26    27 1   
    51    27    46 1   
    52    27    47 1   
    53    27    48 1   
@<TRIPOS>SUBSTRUCTURE
     1 NZE         1 TEMP              0 ****  ****    0 ROOT
