@<TRIPOS>MOLECULE
NZF
   70    73     1     0     0
SMALL
No Charge or Current Charge


@<TRIPOS>ATOM
      1 C17          6.5200     3.2490    -2.6170 c3         1 NZF       0.146900
      2 O1           7.2290     2.0290    -2.3340 os         1 NZF      -0.326100
      3 C15          6.7450     1.0660    -1.4620 ca         1 NZF       0.184600
      4 C16          5.5150     1.2320    -0.7970 ca         1 NZF      -0.279500
      5 C14          7.5220    -0.0990    -1.2550 ca         1 NZF      -0.011900
      6 O2           8.7250    -0.1760    -1.9610 os         1 NZF      -0.324100
      7 C18          9.6500    -1.2760    -1.9030 c3         1 NZF       0.146900
      8 C13          7.0410    -1.0970    -0.3540 ca         1 NZF       0.184600
      9 O3           7.7780    -2.2450    -0.1120 os         1 NZF      -0.326100
     10 C19          7.3400    -3.2940     0.7700 c3         1 NZF       0.146900
     11 C12          5.8040    -0.9010     0.2980 ca         1 NZF      -0.279500
     12 C11          5.0420     0.2460     0.0650 ca         1 NZF       0.397000
     13 N4           3.8290     0.4660     0.7050 nu         1 NZF      -0.932900
     14 C10          2.8190    -0.3500     1.1870 ca         1 NZF       0.428900
     15 N3           1.8640     0.3010     1.8610 nb         1 NZF      -0.335000
     16 N2           2.8690    -1.6680     0.9280 nb         1 NZF      -0.267000
     17 C9           1.8550    -2.4090     1.4070 ca         1 NZF       0.163900
     18 C8           0.8090    -1.8270     2.1340 ca         1 NZF      -0.331000
     19 C7           0.8500    -0.4390     2.3430 ca         1 NZF       0.455900
     20 N1          -0.1560     0.2500     3.0560 nh         1 NZF      -0.774300
     21 C3          -0.6230     1.6050     2.6390 c6         1 NZF       0.241800
     22 C2          -1.0710    -0.4360     4.0110 c6         1 NZF       0.228800
     23 C1          -2.4800    -0.6070     3.3890 c6         1 NZF      -0.095400
     24 C5          -3.0630     0.7600     2.9530 c6         1 NZF      -0.069400
     25 C4          -2.0530     1.5260     2.0550 c6         1 NZF      -0.163700
     26 C6          -2.0770     1.1100     0.5710 c          1 NZF       0.603100
     27 O4          -1.7420    -0.0010     0.1880 o          1 NZF      -0.575100
     28 N5          -2.5250     2.0730    -0.3070 ns         1 NZF      -0.515900
     29 C20         -2.7180     1.8670    -1.7450 c3         1 NZF       0.144300
     30 C21         -4.1750     1.5590    -2.0630 ca         1 NZF      -0.101300
     31 C27         -4.7470     0.3440    -1.6350 ca         1 NZF      -0.086000
     32 C22         -4.9620     2.4850    -2.7730 ca         1 NZF      -0.094000
     33 C23         -6.3080     2.2000    -3.0530 ca         1 NZF      -0.101000
     34 C24         -6.8750     0.9890    -2.6200 ca         1 NZF      -0.096000
     35 C25         -6.1050     0.0550    -1.9080 ca         1 NZF       0.087100
     36 O5          -6.7320    -1.1100    -1.5030 os         1 NZF      -0.400100
     37 C26         -6.0930    -2.1430    -0.7240 c3         1 NZF       0.514000
     38 F2          -5.6470    -1.6820     0.4670 f          1 NZF      -0.111000
     39 F3          -6.9610    -3.1440    -0.4570 f          1 NZF      -0.111000
     40 F1          -5.0450    -2.6970    -1.3760 f          1 NZF      -0.111000
     41 H1           5.5370     3.0360    -3.0570 h1         1 NZF       0.040867
     42 H2           6.3780     3.8390    -1.7030 h1         1 NZF       0.040867
     43 H3           7.0860     3.8590    -3.3310 h1         1 NZF       0.040867
     44 H4           4.9110     2.1190    -0.9510 ha         1 NZF       0.139000
     45 H5          10.5060    -1.0820    -2.5620 h1         1 NZF       0.030033
     46 H6          10.0370    -1.4090    -0.8840 h1         1 NZF       0.030033
     47 H7           9.1750    -2.2070    -2.2360 h1         1 NZF       0.030033
     48 H8           6.3860    -3.7170     0.4290 h1         1 NZF       0.040867
     49 H9           8.0800    -4.1030     0.7930 h1         1 NZF       0.040867
     50 H10          7.2170    -2.9190     1.7930 h1         1 NZF       0.040867
     51 H11          5.4340    -1.6290     1.0080 ha         1 NZF       0.139000
     52 H12          3.5740     1.4490     0.7580 hn         1 NZF       0.505000
     53 H13          1.8820    -3.4780     1.2010 h4         1 NZF       0.015100
     54 H14         -0.0090    -2.4400     2.4940 ha         1 NZF       0.129000
     55 H15         -0.6270     2.2710     3.5150 h1         1 NZF       0.066700
     56 H16          0.0470     2.0700     1.9010 h1         1 NZF       0.066700
     57 H17         -0.6750    -1.4130     4.3190 h1         1 NZF       0.049200
     58 H18         -1.1550     0.1610     4.9320 h1         1 NZF       0.049200
     59 H19         -2.4210    -1.2850     2.5270 hc         1 NZF       0.058200
     60 H20         -3.1490    -1.0860     4.1160 hc         1 NZF       0.058200
     61 H21         -4.0200     0.6220     2.4300 hc         1 NZF       0.047200
     62 H22         -3.2810     1.3580     3.8500 hc         1 NZF       0.047200
     63 H23         -2.4080     2.5660     2.0530 hc         1 NZF       0.064700
     64 H24         -2.7970     2.9650     0.0880 hn         1 NZF       0.311500
     65 H25         -2.4020     2.7760    -2.2740 h1         1 NZF       0.070200
     66 H26         -2.0810     1.0440    -2.0960 h1         1 NZF       0.070200
     67 H27         -4.1230    -0.3570    -1.0900 ha         1 NZF       0.141000
     68 H28         -4.5330     3.4280    -3.1070 ha         1 NZF       0.119000
     69 H29         -6.9130     2.9180    -3.6020 ha         1 NZF       0.124000
     70 H30         -7.9190     0.7730    -2.8350 ha         1 NZF       0.136000
@<TRIPOS>BOND
     1     1     2 1   
     2     1    41 1   
     3     1    42 1   
     4     1    43 1   
     5     2     3 1   
     6     3     4 ar  
     7     3     5 ar  
     8     4    12 ar  
     9     4    44 1   
    10     5     6 1   
    11     5     8 ar  
    12     6     7 1   
    13     7    45 1   
    14     7    46 1   
    15     7    47 1   
    16     8     9 1   
    17     8    11 ar  
    18     9    10 1   
    19    10    48 1   
    20    10    49 1   
    21    10    50 1   
    22    11    12 ar  
    23    11    51 1   
    24    12    13 1   
    25    13    14 1   
    26    13    52 1   
    27    14    15 ar  
    28    14    16 ar  
    29    15    19 ar  
    30    16    17 ar  
    31    17    18 ar  
    32    17    53 1   
    33    18    19 ar  
    34    18    54 1   
    35    19    20 1   
    36    20    21 1   
    37    20    22 1   
    38    21    25 1   
    39    21    55 1   
    40    21    56 1   
    41    22    23 1   
    42    22    57 1   
    43    22    58 1   
    44    23    24 1   
    45    23    59 1   
    46    23    60 1   
    47    24    25 1   
    48    24    61 1   
    49    24    62 1   
    50    25    26 1   
    51    25    63 1   
    52    26    27 2   
    53    26    28 1   
    54    28    29 1   
    55    28    64 1   
    56    29    30 1   
    57    29    65 1   
    58    29    66 1   
    59    30    31 ar  
    60    30    32 ar  
    61    31    35 ar  
    62    31    67 1   
    63    32    33 ar  
    64    32    68 1   
    65    33    34 ar  
    66    33    69 1   
    67    34    35 ar  
    68    34    70 1   
    69    35    36 1   
    70    36    37 1   
    71    37    38 1   
    72    37    39 1   
    73    37    40 1   
@<TRIPOS>SUBSTRUCTURE
     1 NZF         1 TEMP              0 ****  ****    0 ROOT
