@<TRIPOS>MOLECULE
NZF
   70    73     1     0     0
SMALL
bcc


@<TRIPOS>ATOM
      1 C17          7.3080     3.2450    -1.5430 c3         1 NZF       0.123700
      2 O1           7.8250     1.9310    -1.5970 os         1 NZF      -0.302900
      3 C15          7.0640     0.9180    -1.1480 ca         1 NZF       0.184600
      4 C16          5.8020     1.0830    -0.5920 ca         1 NZF      -0.297500
      5 C14          7.6190    -0.3580    -1.2790 ca         1 NZF      -0.011900
      6 O2           8.8430    -0.5200    -1.8530 os         1 NZF      -0.300900
      7 C18          9.9230    -0.5000    -0.9300 c3         1 NZF       0.123700
      8 C13          6.8920    -1.4580    -0.8270 ca         1 NZF       0.184600
      9 O3           7.4970    -2.6510    -0.9770 os         1 NZF      -0.302900
     10 C19          6.8140    -3.8140    -0.5570 c3         1 NZF       0.123700
     11 C12          5.6250    -1.3080    -0.2660 ca         1 NZF      -0.297500
     12 C11          5.0800    -0.0310    -0.1460 ca         1 NZF       0.258600
     13 N4           3.8340     0.2370     0.4030 nu         1 NZF      -0.739300
     14 C10          2.8700    -0.5810     0.9260 ca         1 NZF       0.954900
     15 N3           1.8150     0.0800     1.3920 nb         1 NZF      -0.861000
     16 N2           3.0470    -1.8940     0.9320 nb         1 NZF      -0.793000
     17 C9           2.0360    -2.5860     1.4630 ca         1 NZF       0.492200
     18 C8           0.8940    -2.0270     1.9710 ca         1 NZF      -0.479600
     19 C7           0.8050    -0.6120     1.9190 ca         1 NZF       0.784200
     20 N1          -0.2510     0.0790     2.3890 nh         1 NZF      -0.774300
     21 C3          -0.3200     1.5250     2.2980 c6         1 NZF       0.241800
     22 C2          -1.3320    -0.5210     3.1470 c6         1 NZF       0.228800
     23 C1          -2.6900    -0.1250     2.5860 c6         1 NZF      -0.095400
     24 C5          -2.8190     1.3890     2.5150 c6         1 NZF      -0.069400
     25 C4          -1.6520     2.0040     1.7290 c6         1 NZF      -0.163700
     26 C6          -1.7760     1.7080     0.2410 c          1 NZF       0.670100
     27 O4          -1.0480     0.9280    -0.3510 o          1 NZF      -0.575100
     28 N5          -2.7760     2.3810    -0.3660 ns         1 NZF      -0.582900
     29 C20         -3.1570     2.2070    -1.7450 c3         1 NZF       0.144300
     30 C21         -4.4500     1.4430    -1.9040 ca         1 NZF      -0.101300
     31 C27         -4.6600     0.2640    -1.1960 ca         1 NZF      -0.104000
     32 C22         -5.4410     1.8980    -2.7650 ca         1 NZF      -0.112000
     33 C23         -6.6230     1.1870    -2.9260 ca         1 NZF      -0.119000
     34 C24         -6.8410     0.0160    -2.2160 ca         1 NZF      -0.114000
     35 C25         -5.8480    -0.4240    -1.3560 ca         1 NZF       0.087100
     36 O5          -6.0230    -1.6260    -0.6750 os         1 NZF      -0.376900
     37 C26         -6.5870    -1.5790     0.5370 c3         1 NZF       0.854700
     38 F2          -7.8370    -1.1120     0.5080 f          1 NZF      -0.232300
     39 F3          -6.6160    -2.8130     1.0150 f          1 NZF      -0.232300
     40 F1          -5.9110    -0.8120     1.3950 f          1 NZF      -0.232300
     41 H1           6.3890     3.3460    -2.1270 h1         1 NZF       0.040867
     42 H2           7.1110     3.5670    -0.5170 h1         1 NZF       0.040867
     43 H3           8.0690     3.8930    -1.9710 h1         1 NZF       0.040867
     44 H4           5.3660     2.0670    -0.4860 ha         1 NZF       0.157000
     45 H5          10.8420    -0.6120    -1.5040 h1         1 NZF       0.030033
     46 H6           9.9700     0.4440    -0.3810 h1         1 NZF       0.030033
     47 H7           9.8580    -1.3200    -0.2120 h1         1 NZF       0.030033
     48 H8           5.8690    -3.9500    -1.0900 h1         1 NZF       0.040867
     49 H9           7.4670    -4.6530    -0.7850 h1         1 NZF       0.040867
     50 H10          6.6130    -3.8070     0.5170 h1         1 NZF       0.040867
     51 H11          5.0590    -2.1570     0.0790 ha         1 NZF       0.157000
     52 H12          3.5830     1.2120     0.4470 hn         1 NZF       0.449800
     53 H13          2.1550    -3.6640     1.4790 h4         1 NZF       0.015100
     54 H14          0.1250    -2.6640     2.3750 ha         1 NZF       0.147000
     55 H15         -0.2050     1.9510     3.3020 h1         1 NZF       0.066700
     56 H16          0.5110     1.8870     1.7020 h1         1 NZF       0.066700
     57 H17         -1.2420    -1.6020     3.1600 h1         1 NZF       0.049200
     58 H18         -1.2610    -0.1870     4.1890 h1         1 NZF       0.049200
     59 H19         -2.8250    -0.5770     1.5990 hc         1 NZF       0.058200
     60 H20         -3.4670    -0.5390     3.2300 hc         1 NZF       0.058200
     61 H21         -3.7820     1.6780     2.0900 hc         1 NZF       0.047200
     62 H22         -2.7980     1.7970     3.5300 hc         1 NZF       0.047200
     63 H23         -1.6870     3.0910     1.8550 hc         1 NZF       0.064700
     64 H24         -3.3410     3.0050     0.1890 hn         1 NZF       0.311500
     65 H25         -3.2520     3.1840    -2.2210 h1         1 NZF       0.070200
     66 H26         -2.3500     1.6830    -2.2580 h1         1 NZF       0.070200
     67 H27         -3.8960    -0.1290    -0.5380 ha         1 NZF       0.159000
     68 H28         -5.2900     2.8190    -3.3160 ha         1 NZF       0.137000
     69 H29         -7.3850     1.5510    -3.6020 ha         1 NZF       0.142000
     70 H30         -7.7570    -0.5450    -2.3380 ha         1 NZF       0.154000
@<TRIPOS>BOND
     1     1     2 1   
     2     1    41 1   
     3     1    42 1   
     4     1    43 1   
     5     2     3 1   
     6     3     4 ar  
     7     3     5 ar  
     8     4    12 ar  
     9     4    44 1   
    10     5     6 1   
    11     5     8 ar  
    12     6     7 1   
    13     7    45 1   
    14     7    46 1   
    15     7    47 1   
    16     8     9 1   
    17     8    11 ar  
    18     9    10 1   
    19    10    48 1   
    20    10    49 1   
    21    10    50 1   
    22    11    12 ar  
    23    11    51 1   
    24    12    13 1   
    25    13    14 1   
    26    13    52 1   
    27    14    15 ar  
    28    14    16 ar  
    29    15    19 ar  
    30    16    17 ar  
    31    17    18 ar  
    32    17    53 1   
    33    18    19 ar  
    34    18    54 1   
    35    19    20 1   
    36    20    21 1   
    37    20    22 1   
    38    21    25 1   
    39    21    55 1   
    40    21    56 1   
    41    22    23 1   
    42    22    57 1   
    43    22    58 1   
    44    23    24 1   
    45    23    59 1   
    46    23    60 1   
    47    24    25 1   
    48    24    61 1   
    49    24    62 1   
    50    25    26 1   
    51    25    63 1   
    52    26    27 2   
    53    26    28 1   
    54    28    29 1   
    55    28    64 1   
    56    29    30 1   
    57    29    65 1   
    58    29    66 1   
    59    30    31 ar  
    60    30    32 ar  
    61    31    35 ar  
    62    31    67 1   
    63    32    33 ar  
    64    32    68 1   
    65    33    34 ar  
    66    33    69 1   
    67    34    35 ar  
    68    34    70 1   
    69    35    36 1   
    70    36    37 1   
    71    37    38 1   
    72    37    39 1   
    73    37    40 1   
@<TRIPOS>SUBSTRUCTURE
     1 NZF         1 TEMP              0 ****  ****    0 ROOT
