@<TRIPOS>MOLECULE
NZG
   21    21     1     0     0
SMALL
abcg2


@<TRIPOS>ATOM
      1 N1           2.0630    -0.1120     0.2790 ns         1 NZG      -0.144000
      2 C4          -0.3790    -0.4300     0.1670 ca         1 NZG      -0.063000
      3 C5          -1.6530     0.1140     0.0280 ca         1 NZG      -0.132600
      4 C6          -1.7910     1.4890    -0.1350 ca         1 NZG      -0.077000
      5 C7          -0.6750     2.3120    -0.1570 ca         1 NZG      -0.166000
      6 C8           0.5730     1.7440    -0.0320 ca         1 NZG       0.089000
      7 C2           2.5460    -1.2870    -0.2030 c          1 NZG       0.598100
      8 C3           0.7570     0.3730     0.1310 ca         1 NZG      -0.108000
      9 O1           1.8630    -2.0990    -0.8010 o          1 NZG      -0.575100
     10 O2          -2.6680    -2.0100     0.2180 o          1 NZG      -0.714500
     11 O3          -3.9850    -0.2330    -0.0540 o          1 NZG      -0.714500
     12 H1           2.7330     0.5180     0.6890 hn         1 NZG       0.142000
     13 H2          -0.2820    -1.4940     0.3100 ha         1 NZG       0.156000
     14 H3          -2.7750     1.9210    -0.2420 ha         1 NZG       0.133000
     15 H4          -0.7680     3.3840    -0.2790 ha         1 NZG       0.104000
     16 H5           4.5270    -0.6460     0.4650 hc         1 NZG       0.051367
     17 H6           4.1090    -2.3270     0.8030 hc         1 NZG       0.051367
     18 H7           4.5050    -1.8420    -0.8380 hc         1 NZG       0.051367
     19 C9          -2.8790    -0.7920     0.0680 c          1 NZG       0.714600
     20 C1           4.0090    -1.5200     0.0770 c3         1 NZG      -0.181100
     21 F1           1.6620     2.5330    -0.0580 f          1 NZG      -0.217000
@<TRIPOS>BOND
     1     1     7 1   
     2     1     8 1   
     3     1    12 1   
     4     2     3 ar  
     5     2     8 ar  
     6     2    13 1   
     7     3     4 ar  
     8     3    19 1   
     9     4     5 ar  
    10     4    14 1   
    11     5     6 ar  
    12     5    15 1   
    13     6     8 ar  
    14     6    21 1   
    15     7     9 2   
    16     7    20 1   
    17    10    19 1   
    18    11    19 1   
    19    16    20 1   
    20    17    20 1   
    21    18    20 1   
@<TRIPOS>SUBSTRUCTURE
     1 NZG         1 TEMP              0 ****  ****    0 ROOT
