@<TRIPOS>MOLECULE
NZG
   21    21     1     0     0
SMALL
No Charge or Current Charge


@<TRIPOS>ATOM
      1 N1           2.0700    -0.1650     0.0450 ns         1 NZG      -0.144000
      2 C4          -0.4160    -0.4520     0.0340 ca         1 NZG      -0.063000
      3 C5          -1.7110     0.1220    -0.0110 ca         1 NZG      -0.132600
      4 C6          -1.8290     1.5290    -0.0900 ca         1 NZG      -0.077000
      5 C7          -0.6840     2.3390    -0.1220 ca         1 NZG      -0.166000
      6 C8           0.5900     1.7570    -0.0770 ca         1 NZG       0.089000
      7 C2           2.5730    -1.4580     0.1220 c          1 NZG       0.598100
      8 C3           0.7430     0.3590     0.0020 ca         1 NZG      -0.108000
      9 O1           1.8860    -2.4720     0.1700 o          1 NZG      -0.575100
     10 O2          -2.8090    -1.9700     0.0920 o          1 NZG      -0.714500
     11 O3          -4.0500    -0.2220    -0.0180 o          1 NZG      -0.714500
     12 H1           2.7850     0.5510     0.0140 hn         1 NZG       0.142000
     13 H2          -0.3310    -1.5330     0.0950 ha         1 NZG       0.156000
     14 H3          -2.8100     1.9990    -0.1270 ha         1 NZG       0.133000
     15 H4          -0.7830     3.4190    -0.1830 ha         1 NZG       0.104000
     16 H5           4.4740    -0.9120     0.9670 hc         1 NZG       0.051367
     17 H6           4.4750    -2.5570     0.2030 hc         1 NZG       0.051367
     18 H7           4.4920    -1.0060    -0.7360 hc         1 NZG       0.051367
     19 C9          -2.9510    -0.7580     0.0240 c          1 NZG       0.714600
     20 C1           4.0990    -1.5300     0.1420 c3         1 NZG      -0.181100
     21 F1           1.6790     2.5570    -0.1090 f          1 NZG      -0.217000
@<TRIPOS>BOND
     1     1     7 1   
     2     1     8 1   
     3     1    12 1   
     4     2     3 ar  
     5     2     8 ar  
     6     2    13 1   
     7     3     4 ar  
     8     3    19 1   
     9     4     5 ar  
    10     4    14 1   
    11     5     6 ar  
    12     5    15 1   
    13     6     8 ar  
    14     6    21 1   
    15     7     9 2   
    16     7    20 1   
    17    10    19 1   
    18    11    19 1   
    19    16    20 1   
    20    17    20 1   
    21    18    20 1   
@<TRIPOS>SUBSTRUCTURE
     1 NZG         1 TEMP              0 ****  ****    0 ROOT
