@<TRIPOS>MOLECULE
NZH
   24    25     1     0     0
SMALL
bcc


@<TRIPOS>ATOM
      1 N           47.2470     8.1330    18.6940 n8         1 NZH      -0.894800
      2 CA          47.7740     8.0390    17.3470 c3         1 NZH       0.042500
      3 CB          47.3810     6.6750    16.7460 c3         1 NZH      -0.093700
      4 CG          47.9680     6.4410    15.4000 cc         1 NZH       0.332600
      5 ND1         49.3220     6.2730    15.2170 nc         1 NZH      -0.663000
      6 CE1         49.5030     6.1040    13.9470 cd         1 NZH       0.470400
      7 NE2         48.3160     6.1560    13.2670 na         1 NZH      -0.240700
      8 CD2         47.3260     6.3730    14.2050 cd         1 NZH      -0.243600
      9 C           47.1180     9.0990    16.5000 c          1 NZH       0.574900
     10 O           47.6510     9.6840    15.5930 o          1 NZH      -0.510100
     11 N1          47.0870     6.2530    11.1960 na         1 NZH      -0.181400
     12 N2          47.3580     5.9860     9.9240 nc         1 NZH      -0.185800
     13 N3          48.5660     5.5960     9.8830 nd         1 NZH      -0.020000
     14 N4          49.1170     5.5860    11.0980 nd         1 NZH      -0.399000
     15 C1          48.1820     6.0000    11.9110 cc         1 NZH       0.508000
     16 H           47.5670     7.3450    19.2430 hn         1 NZH       0.351300
     17 H2          47.6090     8.9590    19.1550 hn         1 NZH       0.351300
     18 HA          48.8640     8.1510    17.2710 h1         1 NZH       0.067700
     19 HB2         46.2920     6.5950    16.7010 hc         1 NZH       0.063200
     20 HB3         47.7250     5.8980    17.4350 hc         1 NZH       0.063200
     21 HE1         50.4440     5.9440    13.4430 h5         1 NZH       0.086100
     22 HD2         46.2820     6.4510    13.9520 h4         1 NZH       0.178000
     23 HC          46.0570     9.2780    16.7640 h4         1 NZH      -0.001800
     24 HN1         46.1760     6.5990    11.4690 hn         1 NZH       0.346700
@<TRIPOS>BOND
     1     1     2 1   
     2     1    16 1   
     3     1    17 1   
     4     2     3 1   
     5     2     9 1   
     6     2    18 1   
     7     3     4 1   
     8     3    19 1   
     9     3    20 1   
    10     4     5 1   
    11     4     8 2   
    12     5     6 2   
    13     6     7 1   
    14     6    21 1   
    15     7     8 1   
    16     7    15 1   
    17     8    22 1   
    18     9    10 2   
    19     9    23 1   
    20    11    12 1   
    21    11    15 1   
    22    11    24 1   
    23    12    13 2   
    24    13    14 1   
    25    14    15 2   
@<TRIPOS>SUBSTRUCTURE
     1 NZH         1 TEMP              0 ****  ****    0 ROOT
