@<TRIPOS>MOLECULE
NZH
   24    25     1     0     0
SMALL
No Charge or Current Charge


@<TRIPOS>ATOM
      1 N           47.1370     8.1190    18.7500 n8         1 NZH      -0.894800
      2 CA          47.7320     8.0210    17.3750 c3         1 NZH       0.042500
      3 CB          47.3550     6.6600    16.7400 c3         1 NZH      -0.093700
      4 CG          47.9520     6.4510    15.3750 cc         1 NZH       0.332600
      5 ND1         49.3070     6.3490    15.2080 nc         1 NZH      -0.663000
      6 CE1         49.5160     6.1770    13.9060 cd         1 NZH       0.470400
      7 NE2         48.3010     6.1740    13.2510 na         1 NZH      -0.240700
      8 CD2         47.2870     6.3480    14.1830 cd         1 NZH      -0.243600
      9 C           47.3860     9.2110    16.4220 c          1 NZH       0.574900
     10 O           48.1150    10.1860    16.2590 o          1 NZH      -0.510100
     11 N1          46.9620     6.0130    11.2480 na         1 NZH      -0.181400
     12 N2          47.1910     5.8400     9.9180 nc         1 NZH      -0.185800
     13 N3          48.5020     5.7470     9.8090 nd         1 NZH      -0.020000
     14 N4          49.1400     5.8550    11.0320 nd         1 NZH      -0.399000
     15 C1          48.1570     6.0160    11.8790 cc         1 NZH       0.508000
     16 H           47.4730     7.3400    19.3280 hn         1 NZH       0.351300
     17 H2          47.4980     8.9560    19.2250 hn         1 NZH       0.351300
     18 HA          48.8250     8.0410    17.4900 h1         1 NZH       0.067700
     19 HB2         46.2640     6.5810    16.6710 hc         1 NZH       0.063200
     20 HB3         47.6830     5.8470    17.3990 hc         1 NZH       0.063200
     21 HE1         50.4680     6.0580    13.4010 h5         1 NZH       0.086100
     22 HD2         46.2260     6.3860    13.9590 h4         1 NZH       0.178000
     23 HC          46.4150     9.1270    15.8840 h4         1 NZH      -0.001800
     24 HN1         46.0410     6.1170    11.6490 hn         1 NZH       0.346700
@<TRIPOS>BOND
     1     1     2 1   
     2     1    16 1   
     3     1    17 1   
     4     2     3 1   
     5     2     9 1   
     6     2    18 1   
     7     3     4 1   
     8     3    19 1   
     9     3    20 1   
    10     4     5 1   
    11     4     8 2   
    12     5     6 2   
    13     6     7 1   
    14     6    21 1   
    15     7     8 1   
    16     7    15 1   
    17     8    22 1   
    18     9    10 2   
    19     9    23 1   
    20    11    12 1   
    21    11    15 1   
    22    11    24 1   
    23    12    13 2   
    24    13    14 1   
    25    14    15 2   
@<TRIPOS>SUBSTRUCTURE
     1 NZH         1 TEMP              0 ****  ****    0 ROOT
