@<TRIPOS>MOLECULE
NZJ
   36    37     1     0     0
SMALL
No Charge or Current Charge


@<TRIPOS>ATOM
      1 N1          -0.3730     1.0020    -0.4630 n          1 NZJ      -0.400800
      2 C4           3.5200    -0.6440    -1.7010 ca         1 NZJ      -0.116000
      3 C5           2.3450     0.0570    -1.3830 ca         1 NZJ      -0.090000
      4 C6           2.0330     0.3590    -0.0380 ca         1 NZJ      -0.140600
      5 C7           2.9450    -0.0190     0.9720 ca         1 NZJ      -0.067000
      6 C8           0.7870     1.1360     0.3380 c          1 NZJ       0.615700
      7 C10         -1.9290    -0.9700    -0.2950 c6         1 NZJ      -0.094400
      8 C13         -1.5060     1.9610    -0.3460 c6         1 NZJ       0.093500
      9 C11         -3.1200     0.0050    -0.1030 c6         1 NZJ      -0.142700
     10 C12         -2.6780     1.3740     0.4750 c6         1 NZJ      -0.094400
     11 C14         -4.3150    -0.6220     0.6470 c          1 NZJ       0.605100
     12 C2           4.1240    -0.7210     0.6560 ca         1 NZJ      -0.079300
     13 C3           4.4050    -1.0380    -0.6850 ca         1 NZJ      -0.097000
     14 C9          -0.7710    -0.3000    -1.0750 c6         1 NZJ       0.093500
     15 N2          -5.4660    -0.7580    -0.0470 nt         1 NZJ      -0.609000
     16 O1           0.8160     1.9340     1.2680 o          1 NZJ      -0.592100
     17 O2          -4.2520    -0.9860     1.8090 o          1 NZJ      -0.602100
     18 H1           3.7490    -0.8770    -2.7390 ha         1 NZJ       0.114000
     19 H2           1.6880     0.3770    -2.1890 ha         1 NZJ       0.118000
     20 H3           2.7300     0.2240     2.0110 ha         1 NZJ       0.127000
     21 H4          -1.5600    -1.2980     0.6870 hc         1 NZJ       0.062950
     22 H5          -2.2580    -1.8750    -0.8240 hc         1 NZJ       0.062950
     23 H6          -1.1700     2.9040     0.1090 h1         1 NZJ       0.058450
     24 H7          -1.8610     2.2070    -1.3570 h1         1 NZJ       0.058450
     25 H8           4.7980    -2.1060     2.1830 hc         1 NZJ       0.044367
     26 H9           6.1120    -1.2260     1.3850 hc         1 NZJ       0.044367
     27 H10          5.0970    -0.4040     2.5760 hc         1 NZJ       0.044367
     28 H11         -3.4920     0.2190    -1.1150 hc         1 NZJ       0.047700
     29 H12         -2.3640     1.2530     1.5210 hc         1 NZJ       0.062950
     30 H13         -3.5210     2.0790     0.4780 hc         1 NZJ       0.062950
     31 H14          5.3120    -1.5810    -0.9410 ha         1 NZJ       0.113000
     32 H15         -1.0830    -0.1230    -2.1140 h1         1 NZJ       0.058450
     33 H16          0.0700    -1.0040    -1.1020 h1         1 NZJ       0.058450
     34 H17         -5.5150    -0.4560    -1.0090 hn         1 NZJ       0.313000
     35 H18         -6.2710    -1.1640     0.4060 hn         1 NZJ       0.313000
     36 C1           5.0860    -1.1370     1.7600 c3         1 NZJ      -0.047800
@<TRIPOS>BOND
     1     1     6 1   
     2     1     8 1   
     3     1    14 1   
     4     2     3 ar  
     5     2    13 ar  
     6     2    18 1   
     7     3     4 ar  
     8     3    19 1   
     9     4     5 ar  
    10     4     6 1   
    11     5    12 ar  
    12     5    20 1   
    13     6    16 2   
    14     7     9 1   
    15     7    14 1   
    16     7    21 1   
    17     7    22 1   
    18     8    10 1   
    19     8    23 1   
    20     8    24 1   
    21     9    10 1   
    22     9    11 1   
    23     9    28 1   
    24    10    29 1   
    25    10    30 1   
    26    11    15 1   
    27    11    17 2   
    28    12    13 ar  
    29    12    36 1   
    30    13    31 1   
    31    14    32 1   
    32    14    33 1   
    33    15    34 1   
    34    15    35 1   
    35    25    36 1   
    36    26    36 1   
    37    27    36 1   
@<TRIPOS>SUBSTRUCTURE
     1 NZJ         1 TEMP              0 ****  ****    0 ROOT
