@<TRIPOS>MOLECULE
NZJ
   36    37     1     0     0
SMALL
abcg2


@<TRIPOS>ATOM
      1 N1          -0.3690     1.0450    -0.6540 n          1 NZJ      -0.400800
      2 C4           3.6390    -0.4440    -1.6810 ca         1 NZJ      -0.116000
      3 C5           2.4590     0.2660    -1.5070 ca         1 NZJ      -0.090000
      4 C6           1.9630     0.4680    -0.2240 ca         1 NZJ      -0.140600
      5 C7           2.6550    -0.0390     0.8720 ca         1 NZJ      -0.067000
      6 C8           0.7650     1.3330     0.0200 c          1 NZJ       0.615700
      7 C10         -1.7240    -0.9740    -0.3330 c6         1 NZJ      -0.094400
      8 C13         -1.5330     1.9050    -0.5140 c6         1 NZJ       0.093500
      9 C11         -2.9720    -0.1170    -0.1420 c6         1 NZJ      -0.142700
     10 C12         -2.5810     1.2700     0.3880 c6         1 NZJ      -0.094400
     11 C14         -3.9550    -0.7620     0.8180 c          1 NZJ       0.605100
     12 C2           3.8230    -0.7760     0.7080 ca         1 NZJ      -0.079300
     13 C3           4.3100    -0.9650    -0.5850 ca         1 NZJ      -0.097000
     14 C9          -0.6920    -0.2640    -1.2030 c6         1 NZJ       0.093500
     15 N2          -5.2450    -0.6630     0.4660 nt         1 NZJ      -0.609000
     16 O1           0.8670     2.2880     0.7790 o          1 NZJ      -0.592100
     17 O2          -3.5880    -1.3020     1.8530 o          1 NZJ      -0.602100
     18 H1           4.0370    -0.5900    -2.6770 ha         1 NZJ       0.114000
     19 H2           1.9400     0.6710    -2.3670 ha         1 NZJ       0.118000
     20 H3           2.2720     0.1340     1.8710 ha         1 NZJ       0.127000
     21 H4          -1.2780    -1.2050     0.6380 hc         1 NZJ       0.062950
     22 H5          -1.9830    -1.9250    -0.8050 hc         1 NZJ       0.062950
     23 H6          -1.2270     2.8740    -0.1300 h1         1 NZJ       0.058450
     24 H7          -1.9520     2.0670    -1.5120 h1         1 NZJ       0.058450
     25 H8           4.4140    -2.4450     1.9240 hc         1 NZJ       0.044367
     26 H9           5.6120    -1.1660     1.8410 hc         1 NZJ       0.044367
     27 H10          4.1650    -0.9560     2.8280 hc         1 NZJ       0.044367
     28 H11         -3.4530     0.0190    -1.1180 hc         1 NZJ       0.047700
     29 H12         -2.1850     1.1830     1.4030 hc         1 NZJ       0.062950
     30 H13         -3.4560     1.9220     0.4330 hc         1 NZJ       0.062950
     31 H14          5.2260    -1.5240    -0.7350 ha         1 NZJ       0.113000
     32 H15         -1.0810    -0.1310    -2.2170 h1         1 NZJ       0.058450
     33 H16          0.2030    -0.8740    -1.2800 h1         1 NZJ       0.058450
     34 H17         -5.5320    -0.1970    -0.3770 hn         1 NZJ       0.313000
     35 H18         -5.9710    -0.9850     1.0860 hn         1 NZJ       0.313000
     36 C1           4.5410    -1.3610     1.8890 c3         1 NZJ      -0.047800
@<TRIPOS>BOND
     1     1     6 1   
     2     1     8 1   
     3     1    14 1   
     4     2     3 ar  
     5     2    13 ar  
     6     2    18 1   
     7     3     4 ar  
     8     3    19 1   
     9     4     5 ar  
    10     4     6 1   
    11     5    12 ar  
    12     5    20 1   
    13     6    16 2   
    14     7     9 1   
    15     7    14 1   
    16     7    21 1   
    17     7    22 1   
    18     8    10 1   
    19     8    23 1   
    20     8    24 1   
    21     9    10 1   
    22     9    11 1   
    23     9    28 1   
    24    10    29 1   
    25    10    30 1   
    26    11    15 1   
    27    11    17 2   
    28    12    13 ar  
    29    12    36 1   
    30    13    31 1   
    31    14    32 1   
    32    14    33 1   
    33    15    34 1   
    34    15    35 1   
    35    25    36 1   
    36    26    36 1   
    37    27    36 1   
@<TRIPOS>SUBSTRUCTURE
     1 NZJ         1 TEMP              0 ****  ****    0 ROOT
