@<TRIPOS>MOLECULE
NZK
   43    45     1     0     0
SMALL
No Charge or Current Charge


@<TRIPOS>ATOM
      1 N1           9.2960    -1.9040    22.9890 n3         1 NZK      -0.751600
      2 N3           6.7990     2.0580    18.3210 nb         1 NZK      -0.636000
      3 C4          10.0830    -1.5670    21.7540 c3         1 NZK       0.076800
      4 C5           9.5290    -0.4330    20.8530 c          1 NZK       0.598100
      5 C6           7.2310     0.4150    20.0760 ca         1 NZK      -0.056000
      6 C7           7.6450     1.2620    19.0170 ca         1 NZK       0.290900
      7 C8           5.4910     2.0380    18.6600 ca         1 NZK       0.329900
      8 C10          3.6020     1.2510    19.9980 ca         1 NZK      -0.081000
      9 C13          5.3430    -0.4100    21.4590 ca         1 NZK      -0.111000
     10 C15          9.7810    -3.1400    23.6550 c6         1 NZK       0.143800
     11 O1          10.2560     0.3800    20.2880 o          1 NZK      -0.582100
     12 N2           8.1450    -0.4200    20.7820 ns         1 NZK      -0.138000
     13 C14          5.8570     0.3980    20.4180 ca         1 NZK      -0.040000
     14 C12          3.9700    -0.3850    21.7600 ca         1 NZK      -0.095000
     15 C11          3.1010     0.4430    21.0310 ca         1 NZK      -0.109000
     16 C9           4.9770     1.2300    19.6920 ca         1 NZK      -0.078000
     17 C3           9.2630    -0.7970    23.9830 c6         1 NZK       0.143800
     18 C2           8.3370    -1.1190    25.1860 c6         1 NZK       0.099500
     19 C16          8.8850    -3.5590    24.8530 c6         1 NZK       0.099500
     20 N            8.5540    -2.4590    25.8170 n          1 NZK      -0.422800
     21 C1           7.9520    -2.7400    27.0640 c          1 NZK       0.603100
     22 O            7.3310    -1.8770    27.6720 o          1 NZK      -0.606100
     23 C            8.1480    -4.1250    27.6850 c3         1 NZK      -0.173100
     24 H2          10.1370    -2.4520    21.1060 h1         1 NZK       0.071200
     25 H3          11.1140    -1.2980    22.0180 h1         1 NZK       0.071200
     26 H4           8.6820     1.3000    18.6910 h4         1 NZK       0.052100
     27 H5           4.8360     2.6900    18.0830 h4         1 NZK       0.021100
     28 H6           2.9240     1.8910    19.4380 ha         1 NZK       0.119000
     29 H7           5.9900    -1.0580    22.0440 ha         1 NZK       0.111000
     30 H8           9.8170    -3.9740    22.9400 h1         1 NZK       0.049450
     31 H9          10.8080    -2.9910    24.0230 h1         1 NZK       0.049450
     32 H10          7.7090    -1.1330    21.3540 hn         1 NZK       0.180000
     33 H11          3.5790    -1.0090    22.5620 ha         1 NZK       0.114000
     34 H12          2.0390     0.4590    21.2680 ha         1 NZK       0.118000
     35 H13         10.2760    -0.6020    24.3640 h1         1 NZK       0.049450
     36 H14          8.9110     0.1360    23.5200 h1         1 NZK       0.049450
     37 H15          8.4670    -0.3310    25.9410 h1         1 NZK       0.062950
     38 H16          7.2940    -1.0670    24.8430 h1         1 NZK       0.062950
     39 H17          7.9420    -3.9590    24.4540 h1         1 NZK       0.062950
     40 H18          9.3920    -4.3820    25.3730 h1         1 NZK       0.062950
     41 H19          7.7260    -4.1950    28.6930 hc         1 NZK       0.062033
     42 H20          7.7150    -4.8820    27.0230 hc         1 NZK       0.062033
     43 H21          9.2150    -4.3760    27.6780 hc         1 NZK       0.062033
@<TRIPOS>BOND
     1     1     3 1   
     2     1    10 1   
     3     1    17 1   
     4     2     6 ar  
     5     2     7 ar  
     6     3     4 1   
     7     3    24 1   
     8     3    25 1   
     9     4    11 2   
    10     4    12 1   
    11     5     6 ar  
    12     5    12 1   
    13     5    13 ar  
    14     6    26 1   
    15     7    16 ar  
    16     7    27 1   
    17     8    15 ar  
    18     8    16 ar  
    19     8    28 1   
    20     9    13 ar  
    21     9    14 ar  
    22     9    29 1   
    23    10    19 1   
    24    10    30 1   
    25    10    31 1   
    26    12    32 1   
    27    13    16 ar  
    28    14    15 ar  
    29    14    33 1   
    30    15    34 1   
    31    17    18 1   
    32    17    35 1   
    33    17    36 1   
    34    18    20 1   
    35    18    37 1   
    36    18    38 1   
    37    19    20 1   
    38    19    39 1   
    39    19    40 1   
    40    20    21 1   
    41    21    22 2   
    42    21    23 1   
    43    23    41 1   
    44    23    42 1   
    45    23    43 1   
@<TRIPOS>SUBSTRUCTURE
     1 NZK         1 TEMP              0 ****  ****    0 ROOT
