@<TRIPOS>MOLECULE
NZK
   43    45     1     0     0
SMALL
abcg2


@<TRIPOS>ATOM
      1 N1           9.1840    -1.7630    23.0490 n3         1 NZK      -0.751600
      2 N3           6.9050     1.8050    18.3040 nb         1 NZK      -0.636000
      3 C4          10.1390    -1.3650    22.0300 c3         1 NZK       0.076800
      4 C5           9.5640    -0.3870    21.0080 c          1 NZK       0.598100
      5 C6           7.3330     0.3460    20.1750 ca         1 NZK      -0.056000
      6 C7           7.7490     1.0870    19.0870 ca         1 NZK       0.290900
      7 C8           5.6240     1.7960    18.5850 ca         1 NZK       0.329900
      8 C10          3.6820     1.1040    19.9450 ca         1 NZK      -0.081000
      9 C13          5.3880    -0.3660    21.6080 ca         1 NZK      -0.111000
     10 C15          9.4540    -3.0890    23.6020 c6         1 NZK       0.143800
     11 O1          10.2950     0.2960    20.3010 o          1 NZK      -0.582100
     12 N2           8.2080    -0.4020    20.9650 ns         1 NZK      -0.138000
     13 C14          5.9430     0.3320    20.5090 ca         1 NZK      -0.040000
     14 C12          4.0370    -0.3250    21.8490 ca         1 NZK      -0.095000
     15 C11          3.1730     0.4120    21.0130 ca         1 NZK      -0.109000
     16 C9           5.0700     1.0810    19.6730 ca         1 NZK      -0.078000
     17 C3           9.0680    -0.7620    24.1120 c6         1 NZK       0.143800
     18 C2           7.9690    -1.1440    25.0920 c6         1 NZK       0.099500
     19 C16          8.3540    -3.4910    24.5760 c6         1 NZK       0.099500
     20 N            8.2090    -2.4830    25.6190 n          1 NZK      -0.422800
     21 C1           8.3360    -2.7000    26.9490 c          1 NZK       0.603100
     22 O            8.2280    -1.7850    27.7730 o          1 NZK      -0.606100
     23 C            8.6150    -4.1150    27.4090 c3         1 NZK      -0.173100
     24 H2          10.4530    -2.2480    21.4670 h1         1 NZK       0.071200
     25 H3          11.0480    -0.9080    22.4450 h1         1 NZK       0.071200
     26 H4           8.7940     1.1150    18.8230 h4         1 NZK       0.052100
     27 H5           4.9640     2.3720    17.9430 h4         1 NZK       0.021100
     28 H6           3.0340     1.6790    19.2950 ha         1 NZK       0.119000
     29 H7           6.0150    -0.9350    22.2810 ha         1 NZK       0.111000
     30 H8           9.4900    -3.8090    22.7840 h1         1 NZK       0.049450
     31 H9          10.4240    -3.1140    24.1240 h1         1 NZK       0.049450
     32 H10          7.8200    -1.0360    21.6550 hn         1 NZK       0.180000
     33 H11          3.6300    -0.8620    22.6960 ha         1 NZK       0.114000
     34 H12          2.1110     0.4290    21.2210 ha         1 NZK       0.118000
     35 H13         10.0220    -0.6590    24.6520 h1         1 NZK       0.049450
     36 H14          8.8290     0.2050    23.6660 h1         1 NZK       0.049450
     37 H15          7.9380    -0.4450    25.9220 h1         1 NZK       0.062950
     38 H16          7.0010    -1.1330    24.5830 h1         1 NZK       0.062950
     39 H17          7.4050    -3.5770    24.0370 h1         1 NZK       0.062950
     40 H18          8.5870    -4.4580    25.0090 h1         1 NZK       0.062950
     41 H19          8.6550    -4.1140    28.4950 hc         1 NZK       0.062033
     42 H20          7.8340    -4.8030    27.0800 hc         1 NZK       0.062033
     43 H21          9.5670    -4.4780    27.0180 hc         1 NZK       0.062033
@<TRIPOS>BOND
     1     1     3 1   
     2     1    10 1   
     3     1    17 1   
     4     2     6 ar  
     5     2     7 ar  
     6     3     4 1   
     7     3    24 1   
     8     3    25 1   
     9     4    11 2   
    10     4    12 1   
    11     5     6 ar  
    12     5    12 1   
    13     5    13 ar  
    14     6    26 1   
    15     7    16 ar  
    16     7    27 1   
    17     8    15 ar  
    18     8    16 ar  
    19     8    28 1   
    20     9    13 ar  
    21     9    14 ar  
    22     9    29 1   
    23    10    19 1   
    24    10    30 1   
    25    10    31 1   
    26    12    32 1   
    27    13    16 ar  
    28    14    15 ar  
    29    14    33 1   
    30    15    34 1   
    31    17    18 1   
    32    17    35 1   
    33    17    36 1   
    34    18    20 1   
    35    18    37 1   
    36    18    38 1   
    37    19    20 1   
    38    19    39 1   
    39    19    40 1   
    40    20    21 1   
    41    21    22 2   
    42    21    23 1   
    43    23    41 1   
    44    23    42 1   
    45    23    43 1   
@<TRIPOS>SUBSTRUCTURE
     1 NZK         1 TEMP              0 ****  ****    0 ROOT
