@<TRIPOS>MOLECULE
NZM
   45    46     1     0     0
SMALL
No Charge or Current Charge


@<TRIPOS>ATOM
      1 OAL          6.9420     1.4830    -3.3210 o          1 NZM      -0.715000
      2 CAK          6.0000     0.7700    -2.9990 c          1 NZM       0.724000
      3 OAM          5.6880    -0.2400    -3.6190 o          1 NZM      -0.715000
      4 CAJ          5.1790     1.1870    -1.7430 c3         1 NZM       0.002600
      5 OAI          4.0950     0.2790    -1.4520 os         1 NZM      -0.220000
      6 NAH          3.3960     0.7140    -0.3080 n2         1 NZM      -0.290700
      7 CAG          2.4070    -0.0660     0.0310 ce         1 NZM       0.229300
      8 CAD          2.6800    -1.4740     0.4310 cc         1 NZM       0.331700
      9 CAE          3.9340    -2.0520     0.5260 cd         1 NZM      -0.243000
     10 SAF          3.8470    -3.7370     1.0100 ss         1 NZM      -0.172400
     11 CAB          2.1160    -3.5180     1.0200 cd         1 NZM       0.713300
     12 NAA          1.2280    -4.4540     1.3500 nv         1 NZM      -1.047900
     13 NAC          1.6420    -2.3420     0.7240 nc         1 NZM      -0.731000
     14 CAN          1.0690     0.6070     0.3220 c          1 NZM       0.515800
     15 OAO          0.7610     1.7020    -0.1400 o          1 NZM      -0.557100
     16 N            0.2310    -0.0020     1.2390 ns         1 NZM      -0.493900
     17 CA          -1.0920     0.5190     1.6890 c3         1 NZM      -0.006300
     18 C           -1.6160    -0.2990     2.8910 c          1 NZM       0.572900
     19 O           -0.9980    -1.2270     3.4110 o          1 NZM      -0.525100
     20 CB          -2.1500     0.6050     0.5480 c6         1 NZM       0.382500
     21 NAU         -3.3530     1.3120     0.9760 nu         1 NZM      -0.805200
     22 SBB         -2.6620    -1.0640     0.0150 ss         1 NZM      -0.522000
     23 CBA         -3.7910    -0.4910    -1.3090 c6         1 NZM       0.147800
     24 CAZ         -4.8460     0.4910    -0.7710 ce         1 NZM      -0.258200
     25 CBC         -6.1300     0.3910    -1.5000 ce         1 NZM      -0.068000
     26 CBD         -6.2440     0.1040    -2.8160 c2         1 NZM      -0.444000
     27 CAV         -4.6000     1.3190     0.3130 cf         1 NZM       0.096800
     28 CAW         -5.5970     2.3690     0.8880 c          1 NZM       0.713200
     29 OAX         -6.6960     2.5480     0.3790 o          1 NZM      -0.702000
     30 OAY         -5.2210     3.0330     1.8520 o          1 NZM      -0.702000
     31 H2           5.8730     1.2350    -0.8940 h1         1 NZM       0.018700
     32 H3           4.7900     2.1980    -1.9210 h1         1 NZM       0.018700
     33 H4           4.8920    -1.5820     0.3410 h4         1 NZM       0.169000
     34 H5           1.5680    -5.2260     1.9110 hn         1 NZM       0.480000
     35 H6           0.3020    -4.1090     1.5640 hn         1 NZM       0.480000
     36 H7           0.5110    -0.9370     1.5400 hn         1 NZM       0.356500
     37 H8          -0.9350     1.5390     2.0620 h1         1 NZM       0.101700
     38 H9          -2.6090     0.0110     3.2850 h4         1 NZM       0.009200
     39 H10         -1.7040     1.1050    -0.3260 h2         1 NZM       0.065700
     40 H11         -3.1900    -0.0070    -2.0920 h1         1 NZM       0.050200
     41 H12         -4.2670    -1.3830    -1.7430 h1         1 NZM       0.050200
     42 H14         -7.0420     0.5590    -0.9210 ha         1 NZM       0.203000
     43 H15         -7.2210     0.0420    -3.2950 ha         1 NZM       0.134500
     44 H16         -5.3780    -0.0640    -3.4570 ha         1 NZM       0.134500
     45 H18         -3.2670     2.0650     1.6650 hn         1 NZM       0.515000
@<TRIPOS>BOND
     1     1     2 1   
     2     2     3 1   
     3     2     4 1   
     4     4     5 1   
     5     4    31 1   
     6     4    32 1   
     7     5     6 1   
     8     6     7 2   
     9     7     8 1   
    10     7    14 1   
    11     8     9 2   
    12     8    13 1   
    13     9    10 1   
    14     9    33 1   
    15    10    11 1   
    16    11    12 1   
    17    11    13 2   
    18    12    34 1   
    19    12    35 1   
    20    14    15 2   
    21    14    16 1   
    22    16    17 1   
    23    16    36 1   
    24    17    18 1   
    25    17    20 1   
    26    17    37 1   
    27    18    19 2   
    28    18    38 1   
    29    20    21 1   
    30    20    22 1   
    31    20    39 1   
    32    21    27 1   
    33    21    45 1   
    34    22    23 1   
    35    23    24 1   
    36    23    40 1   
    37    23    41 1   
    38    24    25 1   
    39    24    27 2   
    40    25    26 2   
    41    25    42 1   
    42    26    43 1   
    43    26    44 1   
    44    27    28 1   
    45    28    29 1   
    46    28    30 1   
@<TRIPOS>SUBSTRUCTURE
     1 NZM         1 TEMP              0 ****  ****    0 ROOT
