@<TRIPOS>MOLECULE
NZM
   45    46     1     0     0
SMALL
abcg2


@<TRIPOS>ATOM
      1 OAL          6.7690     2.9480    -2.0960 o          1 NZM      -0.715000
      2 CAK          5.7440     2.7600    -1.4130 c          1 NZM       0.724000
      3 OAM          5.0460     3.6040    -0.8330 o          1 NZM      -0.715000
      4 CAJ          5.3470     1.2810    -1.2990 c3         1 NZM       0.002600
      5 OAI          4.1370     1.1380    -0.5610 os         1 NZM      -0.220000
      6 NAH          3.8750    -0.1610    -0.3640 n2         1 NZM      -0.290700
      7 CAG          2.7430    -0.4310     0.1580 ce         1 NZM       0.229300
      8 CAD          2.4870    -1.8600     0.4080 cc         1 NZM       0.331700
      9 CAE          3.4020    -2.7460     0.8710 cd         1 NZM      -0.243000
     10 SAF          2.6750    -4.3070     1.0100 ss         1 NZM      -0.172400
     11 CAB          1.1730    -3.6350     0.4360 cd         1 NZM       0.713300
     12 NAA          0.0750    -4.3930     0.2440 nv         1 NZM      -1.047900
     13 NAC          1.2380    -2.3690     0.1630 nc         1 NZM      -0.731000
     14 CAN          1.7110     0.5960     0.5730 c          1 NZM       0.515800
     15 OAO          2.0230     1.6440     1.1070 o          1 NZM      -0.557100
     16 N            0.4450     0.2450     0.2890 ns         1 NZM      -0.493900
     17 CA          -0.6670     1.0120     0.7650 c3         1 NZM      -0.006300
     18 C           -0.8690     0.8840     2.2670 c          1 NZM       0.572900
     19 O           -0.1530     0.2360     2.9820 o          1 NZM      -0.525100
     20 CB          -1.9390     0.5910     0.0240 c6         1 NZM       0.382500
     21 NAU         -3.0070     1.4820     0.3330 nu         1 NZM      -0.805200
     22 SBB         -2.4150    -1.0900     0.5510 ss         1 NZM      -0.522000
     23 CBA         -3.8690    -1.1940    -0.5150 c6         1 NZM       0.147800
     24 CAZ         -4.7470     0.0300    -0.4950 ce         1 NZM      -0.258200
     25 CBC         -6.0810    -0.1630    -1.0440 ce         1 NZM      -0.068000
     26 CBD         -6.5840    -1.3110    -1.5180 c2         1 NZM      -0.444000
     27 CAV         -4.2960     1.2440    -0.0780 cf         1 NZM       0.096800
     28 CAW         -5.1310     2.5370     0.0260 c          1 NZM       0.713200
     29 OAX         -6.3490     2.4440     0.2360 o          1 NZM      -0.702000
     30 OAY         -4.4650     3.5860    -0.0860 o          1 NZM      -0.702000
     31 H2           5.2260     0.8570    -2.3020 h1         1 NZM       0.018700
     32 H3           6.1540     0.7260    -0.8070 h1         1 NZM       0.018700
     33 H4           4.4260    -2.5740     1.1580 h4         1 NZM       0.169000
     34 H5          -0.0140    -5.2600     0.7480 hn         1 NZM       0.480000
     35 H6          -0.7880    -3.8820     0.1330 hn         1 NZM       0.480000
     36 H7           0.2840    -0.7270     0.0240 hn         1 NZM       0.356500
     37 H8          -0.5070     2.0770     0.5550 h1         1 NZM       0.101700
     38 H9          -1.7290     1.4490     2.6600 h4         1 NZM       0.009200
     39 H10         -1.7250     0.5530    -1.0520 h2         1 NZM       0.065700
     40 H11         -3.5550    -1.4490    -1.5310 h1         1 NZM       0.050200
     41 H12         -4.4210    -2.0570    -0.1370 h1         1 NZM       0.050200
     42 H14         -6.7080     0.7160    -1.0930 ha         1 NZM       0.203000
     43 H15         -7.5820    -1.3350    -1.9360 ha         1 NZM       0.134500
     44 H16         -6.0490    -2.2520    -1.5180 ha         1 NZM       0.134500
     45 H18         -2.7910     2.4720     0.3140 hn         1 NZM       0.515000
@<TRIPOS>BOND
     1     1     2 1   
     2     2     3 1   
     3     2     4 1   
     4     4     5 1   
     5     4    31 1   
     6     4    32 1   
     7     5     6 1   
     8     6     7 2   
     9     7     8 1   
    10     7    14 1   
    11     8     9 2   
    12     8    13 1   
    13     9    10 1   
    14     9    33 1   
    15    10    11 1   
    16    11    12 1   
    17    11    13 2   
    18    12    34 1   
    19    12    35 1   
    20    14    15 2   
    21    14    16 1   
    22    16    17 1   
    23    16    36 1   
    24    17    18 1   
    25    17    20 1   
    26    17    37 1   
    27    18    19 2   
    28    18    38 1   
    29    20    21 1   
    30    20    22 1   
    31    20    39 1   
    32    21    27 1   
    33    21    45 1   
    34    22    23 1   
    35    23    24 1   
    36    23    40 1   
    37    23    41 1   
    38    24    25 1   
    39    24    27 2   
    40    25    26 2   
    41    25    42 1   
    42    26    43 1   
    43    26    44 1   
    44    27    28 1   
    45    28    29 1   
    46    28    30 1   
@<TRIPOS>SUBSTRUCTURE
     1 NZM         1 TEMP              0 ****  ****    0 ROOT
