@<TRIPOS>MOLECULE
NZN
   49    50     1     0     0
SMALL
No Charge or Current Charge


@<TRIPOS>ATOM
      1 O28         -4.0880     2.2460    -0.3330 o          1 NZN      -0.613100
      2 C27         -4.3450     1.0530    -0.3920 c          1 NZN       0.594100
      3 N29         -5.6340     0.5770    -0.3250 ns         1 NZN      -0.505900
      4 C30         -6.8160     1.4210    -0.1580 c3         1 NZN       0.105000
      5 C31         -8.0980     0.5800    -0.0510 c3         1 NZN      -0.112100
      6 C26         -3.2620    -0.0150    -0.5790 c3         1 NZN      -0.148400
      7 C23         -2.4330    -0.2330     0.7180 c3         1 NZN      -0.151400
      8 C22         -1.3510    -1.3030     0.5330 c          1 NZN       0.611100
      9 O24         -1.6270    -2.4930     0.4830 o          1 NZN      -0.547100
     10 N21         -0.0650    -0.8140     0.4570 ns         1 NZN      -0.424100
     11 C16          1.1130    -1.5110     0.3090 cc         1 NZN       0.245600
     12 C17          1.3360    -2.8640     0.1910 cd         1 NZN      -0.392200
     13 C18          2.7490    -3.2070     0.0460 c          1 NZN       0.543200
     14 O20          3.2660    -4.3110    -0.0040 o          1 NZN      -0.541000
     15 N19          3.3750    -1.9950     0.0260 ns         1 NZN      -0.342300
     16 N15          2.3940    -1.0070     0.2130 na         1 NZN      -0.432400
     17 C3           2.8400     0.4050     0.0930 c3         1 NZN       0.226500
     18 C2           3.3040     0.7130    -1.3570 c3         1 NZN      -0.088400
     19 C4           3.9210     0.7490     1.1530 c3         1 NZN      -0.088400
     20 C5           3.9710     2.2200     1.6330 c3         1 NZN      -0.069900
     21 C6           3.7270     3.3230     0.5760 c3         1 NZN      -0.073400
     22 C7           4.3300     3.0660    -0.8230 c3         1 NZN      -0.073400
     23 C1           3.4240     2.2070    -1.7350 c3         1 NZN      -0.069900
     24 H1          -5.7580    -0.4270    -0.3890 hn         1 NZN       0.314500
     25 H2          -6.6980     2.0260     0.7510 h1         1 NZN       0.052200
     26 H3          -6.8930     2.1000    -1.0180 h1         1 NZN       0.052200
     27 H4          -8.0480    -0.0950     0.8120 hc         1 NZN       0.043033
     28 H5          -8.9700     1.2330     0.0740 hc         1 NZN       0.043033
     29 H6          -8.2450    -0.0200    -0.9560 hc         1 NZN       0.043033
     30 H7          -3.7240    -0.9680    -0.8640 hc         1 NZN       0.074200
     31 H8          -2.5830     0.3160    -1.3750 hc         1 NZN       0.074200
     32 H9          -1.9750     0.7220     1.0040 hc         1 NZN       0.078200
     33 H10         -3.1130    -0.5650     1.5120 hc         1 NZN       0.078200
     34 H11          0.0020     0.1920     0.5190 hn         1 NZN       0.328500
     35 H12          0.5990    -3.6530     0.2220 ha         1 NZN       0.246000
     36 H13          4.3290    -1.9090     0.3640 hn         1 NZN       0.326500
     37 H14          1.9620     1.0290     0.3030 h1         1 NZN       0.054700
     38 H15          4.2660     0.2210    -1.5420 hc         1 NZN       0.054200
     39 H16          2.5910     0.2540    -2.0530 hc         1 NZN       0.054200
     40 H17          3.7610     0.1260     2.0420 hc         1 NZN       0.054200
     41 H18          4.9070     0.4640     0.7650 hc         1 NZN       0.054200
     42 H19          3.2340     2.3530     2.4340 hc         1 NZN       0.040200
     43 H20          4.9510     2.3900     2.0970 hc         1 NZN       0.040200
     44 H21          2.6480     3.4960     0.4770 hc         1 NZN       0.040450
     45 H22          4.1420     4.2600     0.9690 hc         1 NZN       0.040450
     46 H23          4.4730     4.0360    -1.3140 hc         1 NZN       0.040450
     47 H24          5.3260     2.6140    -0.7350 hc         1 NZN       0.040450
     48 H25          3.8110     2.2670    -2.7590 hc         1 NZN       0.040200
     49 H26          2.4200     2.6500    -1.7650 hc         1 NZN       0.040200
@<TRIPOS>BOND
     1     1     2 2   
     2     2     3 1   
     3     2     6 1   
     4     3     4 1   
     5     3    24 1   
     6     4     5 1   
     7     4    25 1   
     8     4    26 1   
     9     5    27 1   
    10     5    28 1   
    11     5    29 1   
    12     6     7 1   
    13     6    30 1   
    14     6    31 1   
    15     7     8 1   
    16     7    32 1   
    17     7    33 1   
    18     8     9 2   
    19     8    10 1   
    20    10    11 1   
    21    10    34 1   
    22    11    12 2   
    23    11    16 1   
    24    12    13 1   
    25    12    35 1   
    26    13    14 2   
    27    13    15 1   
    28    15    16 1   
    29    15    36 1   
    30    16    17 1   
    31    17    18 1   
    32    17    19 1   
    33    17    37 1   
    34    18    23 1   
    35    18    38 1   
    36    18    39 1   
    37    19    20 1   
    38    19    40 1   
    39    19    41 1   
    40    20    21 1   
    41    20    42 1   
    42    20    43 1   
    43    21    22 1   
    44    21    44 1   
    45    21    45 1   
    46    22    23 1   
    47    22    46 1   
    48    22    47 1   
    49    23    48 1   
    50    23    49 1   
@<TRIPOS>SUBSTRUCTURE
     1 NZN         1 TEMP              0 ****  ****    0 ROOT
