@<TRIPOS>MOLECULE
NZN
   49    50     1     0     0
SMALL
abcg2


@<TRIPOS>ATOM
      1 O28         -4.1500     1.9130    -0.9060 o          1 NZN      -0.613100
      2 C27         -4.4730     0.7730    -0.5950 c          1 NZN       0.594100
      3 N29         -5.7150     0.4550    -0.2120 ns         1 NZN      -0.505900
      4 C30         -6.8030     1.4140    -0.1770 c3         1 NZN       0.105000
      5 C31         -8.0400     0.7910     0.4420 c3         1 NZN      -0.112100
      6 C26         -3.4940    -0.3820    -0.6470 c3         1 NZN      -0.148400
      7 C23         -2.1100     0.0420    -0.1890 c3         1 NZN      -0.151400
      8 C22         -1.0760    -1.0400    -0.3730 c          1 NZN       0.611100
      9 O24         -1.2560    -2.0550    -1.0060 o          1 NZN      -0.547100
     10 N21          0.1190    -0.7500     0.2400 ns         1 NZN      -0.424100
     11 C16          1.2460    -1.5310     0.2200 cc         1 NZN       0.245600
     12 C17          1.4380    -2.8120    -0.2060 cd         1 NZN      -0.392200
     13 C18          2.8290    -3.1070    -0.0060 c          1 NZN       0.543200
     14 O20          3.4580    -4.1500    -0.1530 o          1 NZN      -0.541000
     15 N19          3.3960    -1.9250     0.4380 ns         1 NZN      -0.342300
     16 N15          2.4090    -0.9880     0.7010 na         1 NZN      -0.432400
     17 C3           2.7910     0.4120     0.4320 c3         1 NZN       0.226500
     18 C2           3.0780     0.6180    -1.0560 c3         1 NZN      -0.088400
     19 C4           3.9750     0.7870     1.3260 c3         1 NZN      -0.088400
     20 C5           4.0260     2.2570     1.7460 c3         1 NZN      -0.069900
     21 C6           3.7230     3.2960     0.6630 c3         1 NZN      -0.073400
     22 C7           4.1920     2.9460    -0.7490 c3         1 NZN      -0.073400
     23 C1           3.2020     2.0680    -1.5110 c3         1 NZN      -0.069900
     24 H1          -5.9240    -0.5050     0.0090 hn         1 NZN       0.314500
     25 H2          -6.4950     2.2880     0.4000 h1         1 NZN       0.052200
     26 H3          -7.0280     1.7640    -1.1880 h1         1 NZN       0.052200
     27 H4          -7.8550     0.4730     1.4690 hc         1 NZN       0.043033
     28 H5          -8.8530     1.5140     0.4570 hc         1 NZN       0.043033
     29 H6          -8.3770    -0.0750    -0.1290 hc         1 NZN       0.043033
     30 H7          -3.8520    -1.2240    -0.0510 hc         1 NZN       0.074200
     31 H8          -3.4560    -0.7290    -1.6830 hc         1 NZN       0.074200
     32 H9          -1.7790     0.9220    -0.7490 hc         1 NZN       0.078200
     33 H10         -2.1300     0.3450     0.8610 hc         1 NZN       0.078200
     34 H11          0.1520     0.0960     0.7910 hn         1 NZN       0.328500
     35 H12          0.7000    -3.5070    -0.5610 ha         1 NZN       0.246000
     36 H13          4.1550    -1.9540     1.1060 hn         1 NZN       0.326500
     37 H14          1.9320     1.0160     0.7370 h1         1 NZN       0.054700
     38 H15          3.9960     0.0790    -1.3040 hc         1 NZN       0.054200
     39 H16          2.2800     0.1540    -1.6450 hc         1 NZN       0.054200
     40 H17          3.9400     0.1880     2.2400 hc         1 NZN       0.054200
     41 H18          4.9050     0.5130     0.8190 hc         1 NZN       0.054200
     42 H19          3.3310     2.4110     2.5750 hc         1 NZN       0.040200
     43 H20          5.0230     2.4400     2.1520 hc         1 NZN       0.040200
     44 H21          2.6460     3.4910     0.6250 hc         1 NZN       0.040450
     45 H22          4.1740     4.2410     0.9740 hc         1 NZN       0.040450
     46 H23          4.3140     3.8730    -1.3130 hc         1 NZN       0.040450
     47 H24          5.1820     2.4790    -0.7250 hc         1 NZN       0.040450
     48 H25          3.4810     2.0490    -2.5670 hc         1 NZN       0.040200
     49 H26          2.2180     2.5460    -1.4720 hc         1 NZN       0.040200
@<TRIPOS>BOND
     1     1     2 2   
     2     2     3 1   
     3     2     6 1   
     4     3     4 1   
     5     3    24 1   
     6     4     5 1   
     7     4    25 1   
     8     4    26 1   
     9     5    27 1   
    10     5    28 1   
    11     5    29 1   
    12     6     7 1   
    13     6    30 1   
    14     6    31 1   
    15     7     8 1   
    16     7    32 1   
    17     7    33 1   
    18     8     9 2   
    19     8    10 1   
    20    10    11 1   
    21    10    34 1   
    22    11    12 2   
    23    11    16 1   
    24    12    13 1   
    25    12    35 1   
    26    13    14 2   
    27    13    15 1   
    28    15    16 1   
    29    15    36 1   
    30    16    17 1   
    31    17    18 1   
    32    17    19 1   
    33    17    37 1   
    34    18    23 1   
    35    18    38 1   
    36    18    39 1   
    37    19    20 1   
    38    19    40 1   
    39    19    41 1   
    40    20    21 1   
    41    20    42 1   
    42    20    43 1   
    43    21    22 1   
    44    21    44 1   
    45    21    45 1   
    46    22    23 1   
    47    22    46 1   
    48    22    47 1   
    49    23    48 1   
    50    23    49 1   
@<TRIPOS>SUBSTRUCTURE
     1 NZN         1 TEMP              0 ****  ****    0 ROOT
