@<TRIPOS>MOLECULE
NZO
   32    34     1     0     0
SMALL
abcg2


@<TRIPOS>ATOM
      1 O2           3.8770    -1.7490    -0.5820 o          1 NZO      -0.538000
      2 C13          4.5260    -0.8070    -0.1900 c          1 NZO       0.657100
      3 O3           5.8360    -0.7900    -0.0330 os         1 NZO      -0.439100
      4 C14          6.5470    -1.9880    -0.3540 c3         1 NZO       0.169900
      5 N3           3.9980     0.4050     0.1580 ns         1 NZO      -0.404400
      6 C12          2.6690     0.7330     0.1330 cc         1 NZO       0.509400
      7 N1           1.6870    -0.1070    -0.2650 na         1 NZO      -0.316600
      8 C8           0.5070     0.5860    -0.1360 ca         1 NZO      -0.095200
      9 C7          -0.8060     0.2360    -0.3850 ca         1 NZO      -0.066000
     10 N2           2.2420     1.9120     0.5030 nd         1 NZO      -0.630100
     11 C9           0.8840     1.8520     0.3430 ca         1 NZO       0.115400
     12 C10         -0.0920     2.8220     0.5680 ca         1 NZO      -0.072000
     13 C11         -1.4060     2.4940     0.3030 ca         1 NZO      -0.078000
     14 C6          -1.7740     1.2140    -0.1510 ca         1 NZO      -0.162600
     15 C5          -3.2070     0.9580    -0.4310 c          1 NZO       0.622300
     16 O1          -3.9230     1.8320    -0.8860 o          1 NZO      -0.517100
     17 C4          -3.7780    -0.3610    -0.1200 cc         1 NZO      -0.315600
     18 C3          -4.9750    -0.8410    -0.5900 cd         1 NZO      -0.066000
     19 C2          -5.3100    -2.1040    -0.0570 cd         1 NZO      -0.146000
     20 C1          -4.3730    -2.5580     0.8280 cc         1 NZO      -0.240000
     21 S           -3.0760    -1.4680     1.0030 ss         1 NZO       0.253000
     22 H14          7.5900    -1.7750    -0.1420 h1         1 NZO       0.057033
     23 H14A         6.2150    -2.8230     0.2620 h1         1 NZO       0.057033
     24 H14B         6.4350    -2.2440    -1.4070 h1         1 NZO       0.057033
     25 HN3          4.6160     1.1380     0.4770 hn         1 NZO       0.368500
     26 H7          -1.0610    -0.7360    -0.7850 ha         1 NZO       0.128000
     27 H10          0.1760     3.8030     0.9360 ha         1 NZO       0.134000
     28 H11         -2.1790     3.2330     0.4680 ha         1 NZO       0.131000
     29 H3          -5.5860    -0.3030    -1.3010 ha         1 NZO       0.149000
     30 H2          -6.2050    -2.6520    -0.3120 ha         1 NZO       0.138000
     31 H1          -4.3830    -3.4830     1.3850 h4         1 NZO       0.151000
     32 HN1          1.8150    -1.0560    -0.5810 hn         1 NZO       0.390000
@<TRIPOS>BOND
     1     1     2 2   
     2     2     3 1   
     3     2     5 1   
     4     3     4 1   
     5     4    22 1   
     6     4    23 1   
     7     4    24 1   
     8     5     6 1   
     9     5    25 1   
    10     6     7 1   
    11     6    10 2   
    12     7     8 1   
    13     7    32 1   
    14     8     9 ar  
    15     8    11 ar  
    16     9    14 ar  
    17     9    26 1   
    18    10    11 1   
    19    11    12 ar  
    20    12    13 ar  
    21    12    27 1   
    22    13    14 ar  
    23    13    28 1   
    24    14    15 1   
    25    15    16 2   
    26    15    17 1   
    27    17    18 2   
    28    17    21 1   
    29    18    19 1   
    30    18    29 1   
    31    19    20 2   
    32    19    30 1   
    33    20    21 1   
    34    20    31 1   
@<TRIPOS>SUBSTRUCTURE
     1 NZO         1 TEMP              0 ****  ****    0 ROOT
