@<TRIPOS>MOLECULE
NZO
   32    34     1     0     0
SMALL
No Charge or Current Charge


@<TRIPOS>ATOM
      1 O2           3.8210    -1.8830    -0.5080 o          1 NZO      -0.538000
      2 C13          4.4650    -0.8910    -0.2030 c          1 NZO       0.657100
      3 O3           5.8220    -0.8280    -0.0970 os         1 NZO      -0.439100
      4 C14          6.5730    -2.0270    -0.3660 c3         1 NZO       0.169900
      5 N3           3.9450     0.3300     0.0870 ns         1 NZO      -0.404400
      6 C12          2.6320     0.6960     0.0980 cc         1 NZO       0.509400
      7 N1           1.5470    -0.1180    -0.1910 na         1 NZO      -0.316600
      8 C8           0.4300     0.6490    -0.0560 ca         1 NZO      -0.095200
      9 C7          -0.9190     0.3240    -0.2380 ca         1 NZO      -0.066000
     10 N2           2.2460     1.9440     0.4030 nd         1 NZO      -0.630100
     11 C9           0.8580     1.8940     0.2990 ca         1 NZO       0.115400
     12 C10         -0.0620     2.9300     0.4970 ca         1 NZO      -0.072000
     13 C11         -1.4360     2.6500     0.3270 ca         1 NZO      -0.078000
     14 C6          -1.8810     1.3440    -0.0220 ca         1 NZO      -0.162600
     15 C5          -3.3610     1.0950    -0.2120 c          1 NZO       0.622300
     16 O1          -4.0640     1.9410    -0.7530 o          1 NZO      -0.517100
     17 C4          -3.8840    -0.2550     0.0970 cc         1 NZO      -0.315600
     18 C3          -4.8340    -0.8960    -0.6630 cd         1 NZO      -0.066000
     19 C2          -5.0610    -2.2370    -0.2540 cd         1 NZO      -0.146000
     20 C1          -4.2680    -2.6340     0.7950 cc         1 NZO      -0.240000
     21 S           -3.1970    -1.3340     1.3080 ss         1 NZO       0.253000
     22 H14          7.6470    -1.8410    -0.2460 h1         1 NZO       0.057033
     23 H14A         6.2880    -2.8310     0.3260 h1         1 NZO       0.057033
     24 H14B         6.4010    -2.3760    -1.3930 h1         1 NZO       0.057033
     25 HN3          4.6250     1.0360     0.3190 hn         1 NZO       0.368500
     26 H7          -1.2040    -0.6760    -0.5590 ha         1 NZO       0.128000
     27 H10          0.2760     3.9260     0.7710 ha         1 NZO       0.134000
     28 H11         -2.1610     3.4490     0.4760 ha         1 NZO       0.131000
     29 H3          -5.3530    -0.4310    -1.4980 ha         1 NZO       0.149000
     30 H2          -5.7830    -2.8910    -0.7350 ha         1 NZO       0.138000
     31 H1          -4.2250    -3.5910     1.2990 h4         1 NZO       0.151000
     32 HN1          1.6040    -1.0950    -0.4480 hn         1 NZO       0.390000
@<TRIPOS>BOND
     1     1     2 2   
     2     2     3 1   
     3     2     5 1   
     4     3     4 1   
     5     4    22 1   
     6     4    23 1   
     7     4    24 1   
     8     5     6 1   
     9     5    25 1   
    10     6     7 1   
    11     6    10 2   
    12     7     8 1   
    13     7    32 1   
    14     8     9 ar  
    15     8    11 ar  
    16     9    14 ar  
    17     9    26 1   
    18    10    11 1   
    19    11    12 ar  
    20    12    13 ar  
    21    12    27 1   
    22    13    14 ar  
    23    13    28 1   
    24    14    15 1   
    25    15    16 2   
    26    15    17 1   
    27    17    18 2   
    28    17    21 1   
    29    18    19 1   
    30    18    29 1   
    31    19    20 2   
    32    19    30 1   
    33    20    21 1   
    34    20    31 1   
@<TRIPOS>SUBSTRUCTURE
     1 NZO         1 TEMP              0 ****  ****    0 ROOT
