@<TRIPOS>MOLECULE
NZR
   35    37     1     0     0
SMALL
No Charge or Current Charge


@<TRIPOS>ATOM
      1 O1         -23.7270   -11.0600    -7.0900 o          1 NZR      -0.552000
      2 N1         -22.1880    -9.3820    -9.9790 na         1 NZR       0.107600
      3 C11        -21.7080   -12.8280    -7.3920 ca         1 NZR      -0.227500
      4 C5         -19.7890   -13.0040   -13.7380 ca         1 NZR      -0.066300
      5 C4         -20.5060   -14.1390   -13.3170 ca         1 NZR      -0.110500
      6 C3         -20.8190   -14.3170   -11.9580 ca         1 NZR      -0.089000
      7 C6         -19.4540   -12.8090   -15.2090 c3         1 NZR      -0.048800
      8 C1         -20.7620   -13.5640    -9.5470 cp         1 NZR      -0.011000
      9 C2         -20.4310   -13.3610   -10.9900 cp         1 NZR      -0.051000
     10 C9         -21.4580   -12.5780    -8.7800 ca         1 NZR      -0.017500
     11 C8         -19.7010   -12.2280   -11.4270 ca         1 NZR      -0.089000
     12 C7         -19.3880   -12.0500   -12.7850 ca         1 NZR      -0.110500
     13 S          -22.6380   -11.6790    -6.3410 sy         1 NZR       1.154600
     14 O          -22.8370   -12.2550    -5.0110 o          1 NZR      -0.552000
     15 N4         -21.5830   -10.4510    -6.1080 n8         1 NZR      -1.023100
     16 C12        -21.2600   -14.0320    -6.8030 ca         1 NZR      -0.021000
     17 C13        -20.5870   -14.9930    -7.5660 ca         1 NZR      -0.113000
     18 C          -20.3470   -14.7620    -8.9240 ca         1 NZR      -0.058000
     19 C10        -21.9140   -11.3320    -9.4200 cc         1 NZR       0.550500
     20 N3         -22.8120   -11.3640   -10.4450 nc         1 NZR      -0.336000
     21 N2         -22.9920   -10.1260   -10.8060 nd         1 NZR      -0.149800
     22 N          -21.4810   -10.1380    -9.0740 nd         1 NZR      -0.553800
     23 H1         -22.1300    -8.3650   -10.0440 hn         1 NZR       0.409000
     24 H2         -20.8220   -14.8850   -14.0430 ha         1 NZR       0.112500
     25 H3         -21.3760   -15.1990   -11.6510 ha         1 NZR       0.116000
     26 H4         -20.2480   -12.2510   -15.7190 hc         1 NZR       0.044033
     27 H5         -18.5180   -12.2520   -15.3350 hc         1 NZR       0.044033
     28 H6         -19.3360   -13.7700   -15.7230 hc         1 NZR       0.044033
     29 H7         -19.3700   -11.4860   -10.7050 ha         1 NZR       0.116000
     30 H8         -18.8310   -11.1690   -13.0960 ha         1 NZR       0.112500
     31 H9         -21.3530   -10.2040    -7.0720 hn         1 NZR       0.486000
     32 H10        -22.2150    -9.7050    -5.8310 hn         1 NZR       0.486000
     33 H11        -21.4400   -14.2380    -5.7490 ha         1 NZR       0.148000
     34 H12        -20.2510   -15.9180    -7.1030 ha         1 NZR       0.124000
     35 H13        -19.8130   -15.5120    -9.5040 ha         1 NZR       0.125000
@<TRIPOS>BOND
     1     1    13 2   
     2     2    21 1   
     3     2    22 1   
     4     2    23 1   
     5     3    10 ar  
     6     3    13 1   
     7     3    16 ar  
     8     4     5 ar  
     9     4     7 1   
    10     4    12 ar  
    11     5     6 ar  
    12     5    24 1   
    13     6     9 ar  
    14     6    25 1   
    15     7    26 1   
    16     7    27 1   
    17     7    28 1   
    18     8     9 1   
    19     8    10 ar  
    20     8    18 ar  
    21     9    11 ar  
    22    10    19 1   
    23    11    12 ar  
    24    11    29 1   
    25    12    30 1   
    26    13    14 2   
    27    13    15 1   
    28    15    31 1   
    29    15    32 1   
    30    16    17 ar  
    31    16    33 1   
    32    17    18 ar  
    33    17    34 1   
    34    18    35 1   
    35    19    20 1   
    36    19    22 2   
    37    20    21 2   
@<TRIPOS>SUBSTRUCTURE
     1 NZR         1 TEMP              0 ****  ****    0 ROOT
