@<TRIPOS>MOLECULE
NZR
   35    37     1     0     0
SMALL
abcg2


@<TRIPOS>ATOM
      1 O1         -23.7600   -11.2340    -7.2210 o          1 NZR      -0.552000
      2 N1         -22.2590    -9.4120   -10.0390 na         1 NZR       0.107600
      3 C11        -21.6910   -12.8160    -7.4490 ca         1 NZR      -0.227500
      4 C5         -19.7690   -13.0150   -13.7110 ca         1 NZR      -0.066300
      5 C4         -20.4680   -14.1440   -13.2780 ca         1 NZR      -0.110500
      6 C3         -20.7910   -14.3190   -11.9380 ca         1 NZR      -0.089000
      7 C6         -19.4460   -12.8130   -15.1660 c3         1 NZR      -0.048800
      8 C1         -20.7670   -13.5610    -9.5580 cp         1 NZR      -0.011000
      9 C2         -20.4320   -13.3610   -10.9880 cp         1 NZR      -0.051000
     10 C9         -21.4510   -12.5850    -8.8130 ca         1 NZR      -0.017500
     11 C8         -19.7240   -12.2350   -11.4150 ca         1 NZR      -0.089000
     12 C7         -19.3970   -12.0690   -12.7530 ca         1 NZR      -0.110500
     13 S          -22.6170   -11.6650    -6.4460 sy         1 NZR       1.154600
     14 O          -22.8650   -12.2630    -5.1540 o          1 NZR      -0.552000
     15 N4         -21.5310   -10.4630    -6.1880 n8         1 NZR      -1.023100
     16 C12        -21.2770   -13.9870    -6.8300 ca         1 NZR      -0.021000
     17 C13        -20.6260   -14.9590    -7.5790 ca         1 NZR      -0.113000
     18 C          -20.3780   -14.7460    -8.9250 ca         1 NZR      -0.058000
     19 C10        -21.9370   -11.3690    -9.4870 cc         1 NZR       0.550500
     20 N3         -22.8410   -11.3720   -10.4970 nc         1 NZR      -0.336000
     21 N2         -23.0300   -10.1210   -10.8310 nd         1 NZR      -0.149800
     22 N          -21.5540   -10.1330    -9.1870 nd         1 NZR      -0.553800
     23 H1         -22.2090    -8.4010   -10.0850 hn         1 NZR       0.409000
     24 H2         -20.7640   -14.8960   -13.9990 ha         1 NZR       0.112500
     25 H3         -21.3400   -15.1990   -11.6280 ha         1 NZR       0.116000
     26 H4         -20.2230   -12.2170   -15.6550 hc         1 NZR       0.044033
     27 H5         -18.5010   -12.2830   -15.2900 hc         1 NZR       0.044033
     28 H6         -19.3830   -13.7660   -15.6920 hc         1 NZR       0.044033
     29 H7         -19.4120   -11.4920   -10.6930 ha         1 NZR       0.116000
     30 H8         -18.8370   -11.1930   -13.0590 ha         1 NZR       0.112500
     31 H9         -21.4180    -9.8610    -7.0020 hn         1 NZR       0.486000
     32 H10        -21.7460    -9.9480    -5.3400 hn         1 NZR       0.486000
     33 H11        -21.4780   -14.1380    -5.7800 ha         1 NZR       0.148000
     34 H12        -20.3080   -15.8790    -7.1060 ha         1 NZR       0.124000
     35 H13        -19.8530   -15.4960    -9.5020 ha         1 NZR       0.125000
@<TRIPOS>BOND
     1     1    13 2   
     2     2    21 1   
     3     2    22 1   
     4     2    23 1   
     5     3    10 ar  
     6     3    13 1   
     7     3    16 ar  
     8     4     5 ar  
     9     4     7 1   
    10     4    12 ar  
    11     5     6 ar  
    12     5    24 1   
    13     6     9 ar  
    14     6    25 1   
    15     7    26 1   
    16     7    27 1   
    17     7    28 1   
    18     8     9 1   
    19     8    10 ar  
    20     8    18 ar  
    21     9    11 ar  
    22    10    19 1   
    23    11    12 ar  
    24    11    29 1   
    25    12    30 1   
    26    13    14 2   
    27    13    15 1   
    28    15    31 1   
    29    15    32 1   
    30    16    17 ar  
    31    16    33 1   
    32    17    18 ar  
    33    17    34 1   
    34    18    35 1   
    35    19    20 1   
    36    19    22 2   
    37    20    21 2   
@<TRIPOS>SUBSTRUCTURE
     1 NZR         1 TEMP              0 ****  ****    0 ROOT
