@<TRIPOS>MOLECULE
NZS
   47    50     1     0     0
SMALL
abcg2


@<TRIPOS>ATOM
      1 C1          -0.2470    -2.6630    -0.1060 ca         1 NZS      -0.425900
      2 N1           1.9820    -1.8320     0.4000 nb         1 NZS      -0.288000
      3 O1          -6.1700     0.9640    -0.8910 os         1 NZS      -0.342100
      4 S1           3.7600     2.2930    -0.8130 s6         1 NZS       1.073000
      5 C2           1.1330    -2.7970     0.0530 ca         1 NZS       0.192500
      6 N2           0.0720    -0.3990     0.4780 nb         1 NZS      -0.332000
      7 O2           4.0040     2.5430    -2.2320 o          1 NZS      -0.517500
      8 C3           1.3850    -0.6690     0.6050 ca         1 NZS       0.436900
      9 N3           0.3220    -4.7820    -0.5400 nc         1 NZS      -0.523100
     10 O3           4.4170     3.1610     0.1680 o          1 NZS      -0.517500
     11 C4          -0.7550    -1.3650     0.1270 ca         1 NZS       0.491900
     12 N4           1.4270    -4.0800    -0.2200 na         1 NZS      -0.024100
     13 C5          -0.6890    -3.9530    -0.4790 cd         1 NZS       0.396800
     14 N5          -2.0790    -1.1390    -0.0230 nu         1 NZS      -0.924900
     15 C6           2.7190    -4.7140    -0.1930 c3         1 NZS       0.081900
     16 N6           2.1740     0.3750     1.0110 nh         1 NZS      -0.762300
     17 C7          -2.8360     0.0250     0.1290 ca         1 NZS       0.337000
     18 C8          -4.1100     0.0040    -0.4320 ca         1 NZS      -0.207000
     19 C9          -4.9630     1.0980    -0.3130 ca         1 NZS       0.169100
     20 C10         -4.5380     2.2360     0.3700 ca         1 NZS      -0.217000
     21 C11         -3.2670     2.2400     0.9270 ca         1 NZS      -0.053000
     22 C12         -2.4080     1.1590     0.8240 ca         1 NZS      -0.161000
     23 C13         -7.0800     2.0430    -0.8140 c3         1 NZS       0.148900
     24 C14          1.7090     1.7400     0.9000 c6         1 NZS       0.235300
     25 C15          2.0000     2.3240    -0.4830 c6         1 NZS      -0.332900
     26 C16          4.1720     0.5990    -0.4110 c6         1 NZS      -0.332900
     27 C17          3.6140     0.2360     0.9660 c6         1 NZS       0.235300
     28 H5          -1.6890    -4.2960    -0.6990 h4         1 NZS       0.047800
     29 HN5         -2.6030    -1.9310    -0.3610 hn         1 NZS       0.504000
     30 H6           2.7580    -5.4790     0.5810 h1         1 NZS       0.059367
     31 H6A          2.9380    -5.1680    -1.1570 h1         1 NZS       0.059367
     32 H6B          3.4700    -3.9580     0.0200 h1         1 NZS       0.059367
     33 H8          -4.4530    -0.8710    -0.9730 ha         1 NZS       0.125000
     34 H10         -5.1720     3.1050     0.4770 ha         1 NZS       0.121000
     35 H11         -2.9360     3.1190     1.4660 ha         1 NZS       0.113000
     36 H12         -1.4330     1.1940     1.2800 ha         1 NZS       0.145000
     37 H13         -7.9840     1.7220    -1.3270 h1         1 NZS       0.042367
     38 H13A        -7.3330     2.2930     0.2200 h1         1 NZS       0.042367
     39 H13B        -6.6960     2.9390    -1.3080 h1         1 NZS       0.042367
     40 H14          0.6400     1.7930     1.0810 h1         1 NZS       0.086450
     41 H14A         2.1960     2.3400     1.6700 h1         1 NZS       0.086450
     42 H15          1.6930     3.3690    -0.5540 h1         1 NZS       0.113450
     43 H15A         1.5040     1.7540    -1.2700 h1         1 NZS       0.113450
     44 H16          3.7550    -0.0410    -1.1910 h1         1 NZS       0.113450
     45 H16A         5.2610     0.5300    -0.4400 h1         1 NZS       0.113450
     46 H17          4.0500     0.8810     1.7300 h1         1 NZS       0.086450
     47 H17A         3.8990    -0.7850     1.2000 h1         1 NZS       0.086450
@<TRIPOS>BOND
     1     1     5 ar  
     2     1    11 ar  
     3     1    13 1   
     4     2     5 ar  
     5     2     8 ar  
     6     3    19 1   
     7     3    23 1   
     8     4     7 2   
     9     4    10 2   
    10     4    25 1   
    11     4    26 1   
    12     5    12 1   
    13     6     8 ar  
    14     6    11 ar  
    15     8    16 1   
    16     9    12 1   
    17     9    13 2   
    18    11    14 1   
    19    12    15 1   
    20    13    28 1   
    21    14    17 1   
    22    14    29 1   
    23    15    30 1   
    24    15    31 1   
    25    15    32 1   
    26    16    24 1   
    27    16    27 1   
    28    17    18 ar  
    29    17    22 ar  
    30    18    19 ar  
    31    18    33 1   
    32    19    20 ar  
    33    20    21 ar  
    34    20    34 1   
    35    21    22 ar  
    36    21    35 1   
    37    22    36 1   
    38    23    37 1   
    39    23    38 1   
    40    23    39 1   
    41    24    25 1   
    42    24    40 1   
    43    24    41 1   
    44    25    42 1   
    45    25    43 1   
    46    26    27 1   
    47    26    44 1   
    48    26    45 1   
    49    27    46 1   
    50    27    47 1   
@<TRIPOS>SUBSTRUCTURE
     1 NZS         1 TEMP              0 ****  ****    0 ROOT
