@<TRIPOS>MOLECULE
NZS
   47    50     1     0     0
SMALL
No Charge or Current Charge


@<TRIPOS>ATOM
      1 C1          -0.1890    -2.6880    -0.0620 ca         1 NZS      -0.425900
      2 N1           1.9790    -1.8840     0.3770 nb         1 NZS      -0.288000
      3 O1          -6.0920     1.1670    -1.1730 os         1 NZS      -0.342100
      4 S1           3.8700     2.4980    -0.8460 s6         1 NZS       1.073000
      5 C2           1.1440    -2.8950     0.0870 ca         1 NZS       0.192500
      6 N2           0.0900    -0.3890     0.3730 nb         1 NZS      -0.332000
      7 O2           4.0890     2.7970    -2.2660 o          1 NZS      -0.517500
      8 C3           1.4090    -0.6620     0.5080 ca         1 NZS       0.436900
      9 N3           0.1460    -4.9240    -0.3970 nc         1 NZS      -0.523100
     10 O3           4.5250     3.3170     0.1820 o          1 NZS      -0.517500
     11 C4          -0.7210    -1.4190     0.0940 ca         1 NZS       0.491900
     12 N4           1.3390    -4.2500    -0.1200 na         1 NZS      -0.024100
     13 C5          -0.7870    -3.9610    -0.3590 cd         1 NZS       0.396800
     14 N5          -2.0730    -1.1850    -0.0840 nu         1 NZS      -0.924900
     15 C6           2.6530    -4.9080    -0.0540 c3         1 NZS       0.081900
     16 N6           2.2700     0.4320     0.8070 nh         1 NZS      -0.762300
     17 C7          -2.9070    -0.0930     0.1590 ca         1 NZS       0.337000
     18 C8          -4.0800     0.0290    -0.5980 ca         1 NZS      -0.207000
     19 C9          -4.9600     1.1010    -0.3870 ca         1 NZS       0.169100
     20 C10         -4.6670     2.0610     0.6040 ca         1 NZS      -0.217000
     21 C11         -3.5020     1.9350     1.3780 ca         1 NZS      -0.053000
     22 C12         -2.6280     0.8580     1.1570 ca         1 NZS      -0.161000
     23 C13         -7.0580     2.2250    -1.0400 c3         1 NZS       0.148900
     24 C14          1.7970     1.8410     0.8350 c6         1 NZS       0.235300
     25 C15          2.0990     2.4760    -0.5250 c6         1 NZS      -0.332900
     26 C16          4.2760     0.7680    -0.5510 c6         1 NZS      -0.332900
     27 C17          3.7510     0.3090     0.8130 c6         1 NZS       0.235300
     28 H5          -1.8230    -4.2220    -0.5410 h4         1 NZS       0.047800
     29 HN5         -2.5340    -1.9390    -0.5860 hn         1 NZS       0.504000
     30 H6           3.0790    -4.7760     0.9480 h1         1 NZS       0.059367
     31 H6A          2.5470    -5.9790    -0.2640 h1         1 NZS       0.059367
     32 H6B          3.3260    -4.4590    -0.7950 h1         1 NZS       0.059367
     33 H8          -4.3130    -0.7030    -1.3640 ha         1 NZS       0.125000
     34 H10         -5.3290     2.9010     0.7920 ha         1 NZS       0.121000
     35 H11         -3.2790     2.6670     2.1510 ha         1 NZS       0.113000
     36 H12         -1.7450     0.7600     1.7800 ha         1 NZS       0.145000
     37 H13         -7.8760     2.0860    -1.7580 h1         1 NZS       0.042367
     38 H13A        -7.4910     2.2330    -0.0310 h1         1 NZS       0.042367
     39 H13B        -6.5980     3.2020    -1.2340 h1         1 NZS       0.042367
     40 H14          0.7200     1.9150     1.0520 h1         1 NZS       0.086450
     41 H14A         2.2990     2.4030     1.6390 h1         1 NZS       0.086450
     42 H15          1.7650     3.5190    -0.5660 h1         1 NZS       0.113450
     43 H15A         1.6400     1.9040    -1.3400 h1         1 NZS       0.113450
     44 H16          3.8170     0.1960    -1.3650 h1         1 NZS       0.113450
     45 H16A         5.3670     0.6930    -0.6080 h1         1 NZS       0.113450
     46 H17          4.1880     0.9220     1.6170 h1         1 NZS       0.086450
     47 H17A         4.0820    -0.7210     1.0140 h1         1 NZS       0.086450
@<TRIPOS>BOND
     1     1     5 ar  
     2     1    11 ar  
     3     1    13 1   
     4     2     5 ar  
     5     2     8 ar  
     6     3    19 1   
     7     3    23 1   
     8     4     7 2   
     9     4    10 2   
    10     4    25 1   
    11     4    26 1   
    12     5    12 1   
    13     6     8 ar  
    14     6    11 ar  
    15     8    16 1   
    16     9    12 1   
    17     9    13 2   
    18    11    14 1   
    19    12    15 1   
    20    13    28 1   
    21    14    17 1   
    22    14    29 1   
    23    15    30 1   
    24    15    31 1   
    25    15    32 1   
    26    16    24 1   
    27    16    27 1   
    28    17    18 ar  
    29    17    22 ar  
    30    18    19 ar  
    31    18    33 1   
    32    19    20 ar  
    33    20    21 ar  
    34    20    34 1   
    35    21    22 ar  
    36    21    35 1   
    37    22    36 1   
    38    23    37 1   
    39    23    38 1   
    40    23    39 1   
    41    24    25 1   
    42    24    40 1   
    43    24    41 1   
    44    25    42 1   
    45    25    43 1   
    46    26    27 1   
    47    26    44 1   
    48    26    45 1   
    49    27    46 1   
    50    27    47 1   
@<TRIPOS>SUBSTRUCTURE
     1 NZS         1 TEMP              0 ****  ****    0 ROOT
