@<TRIPOS>MOLECULE
NZT
   56    60     1     0     0
SMALL
No Charge or Current Charge


@<TRIPOS>ATOM
      1 CAI          3.5590     1.4320     2.0890 ca         1 NZT       0.032000
      2 CAE          3.0920     2.7510     1.9970 ca         1 NZT      -0.138000
      3 CAO          3.0980     3.4130     0.7620 ca         1 NZT      -0.034000
      4 CBD          3.5700     2.7510    -0.3860 ca         1 NZT      -0.102000
      5 CAN          3.5620     3.4220    -1.6230 ca         1 NZT      -0.042000
      6 CAD          4.0280     2.7390    -2.7530 ca         1 NZT      -0.174000
      7 CAF          4.4780     1.4210    -2.6120 ca         1 NZT       0.388900
      8 NAW          4.4840     0.7700    -1.4260 nb         1 NZT      -0.712000
      9 CBE          4.0470     1.4150    -0.3140 ca         1 NZT       0.340000
     10 CBC          4.0390     0.7700     0.9400 ca         1 NZT      -0.287500
     11 S1           4.6260    -0.9110     1.0960 sy         1 NZT       1.147600
     12 OAB          6.0230    -0.9900     0.6590 o          1 NZT      -0.525000
     13 OAC          4.1840    -1.4880     2.3680 o          1 NZT      -0.525000
     14 NAX          3.8110    -1.7660    -0.0970 nu         1 NZT      -0.838100
     15 CAZ          2.4400    -1.9850    -0.1430 ca         1 NZT       0.254000
     16 CAJ          1.6920    -1.4650    -1.2110 ca         1 NZT      -0.124000
     17 CAL          0.3030    -1.6700    -1.2790 ca         1 NZT      -0.064000
     18 CAK          1.7890    -2.7470     0.8410 ca         1 NZT      -0.124000
     19 CAM          0.4000    -2.9580     0.7780 ca         1 NZT      -0.064000
     20 CBA         -0.3640    -2.4010    -0.2690 ca         1 NZT      -0.152600
     21 CAY         -1.8560    -2.6570    -0.3230 c          1 NZT       0.619700
     22 OAA         -2.3210    -3.7070     0.1020 o          1 NZT      -0.585100
     23 NBF         -2.6860    -1.7090    -0.9620 n          1 NZT      -0.406800
     24 CAQ         -2.4720    -0.2400    -0.8130 c6         1 NZT       0.085000
     25 CAS         -3.4680     0.4070     0.1890 c6         1 NZT       0.191300
     26 CAR         -4.0970    -2.0230    -1.3130 c6         1 NZT       0.085000
     27 CAT         -5.1090    -1.4210    -0.3020 c6         1 NZT       0.191300
     28 NBG         -4.8970     0.0460    -0.0990 nh         1 NZT      -0.771300
     29 CBB         -5.9650     0.8730     0.3480 ca         1 NZT       0.571900
     30 NAV         -5.6980     2.2020     0.3110 nb         1 NZT      -0.731000
     31 CAH         -6.7070     3.0190     0.7240 ca         1 NZT       0.340900
     32 CAG         -7.9630     2.5250     1.1690 ca         1 NZT       0.222900
     33 NAU         -8.2500     1.1960     1.2140 nb         1 NZT      -0.605000
     34 CAP         -7.2380     0.3790     0.7990 ca         1 NZT       0.233900
     35 H1           3.5480     0.9340     3.0570 ha         1 NZT       0.149000
     36 H2           2.7250     3.2600     2.8860 ha         1 NZT       0.127000
     37 H3           2.7340     4.4360     0.6990 ha         1 NZT       0.121000
     38 H4           3.2030     4.4460    -1.7060 ha         1 NZT       0.124000
     39 H5           4.0410     3.2170    -3.7280 ha         1 NZT       0.132000
     40 H6           4.8430     0.8630    -3.4740 h4         1 NZT       0.028100
     41 H10          2.1840    -0.8960    -1.9960 ha         1 NZT       0.136500
     42 H11         -0.2470    -1.2730    -2.1300 ha         1 NZT       0.127500
     43 H12          2.3580    -3.1870     1.6540 ha         1 NZT       0.136500
     44 H13         -0.0830    -3.5500     1.5530 ha         1 NZT       0.127500
     45 H14         -1.4550    -0.0160    -0.4670 h1         1 NZT       0.067450
     46 H15         -2.5940     0.2370    -1.7960 h1         1 NZT       0.067450
     47 H16         -3.2060     0.0770     1.2050 h1         1 NZT       0.059950
     48 H17         -3.3070     1.4940     0.1550 h1         1 NZT       0.059950
     49 H18         -4.3090    -1.6120    -2.3100 h1         1 NZT       0.067450
     50 H19         -4.2480    -3.1090    -1.3800 h1         1 NZT       0.067450
     51 H20         -6.1190    -1.6190    -0.6900 h1         1 NZT       0.059950
     52 H21         -5.0130    -1.9510     0.6570 h1         1 NZT       0.059950
     53 H22         -6.5090     4.0900     0.7000 h4         1 NZT       0.024100
     54 H23         -8.7470     3.2090     1.4930 h4         1 NZT       0.032100
     55 H24         -7.4500    -0.6880     0.8360 h4         1 NZT       0.028100
     56 H7           4.1460    -1.2370    -0.9000 hn         1 NZT       0.499000
@<TRIPOS>BOND
     1     1     2 ar  
     2     1    10 ar  
     3     1    35 1   
     4     2     3 ar  
     5     2    36 1   
     6     3     4 ar  
     7     3    37 1   
     8     4     5 ar  
     9     4     9 ar  
    10     5     6 ar  
    11     5    38 1   
    12     6     7 ar  
    13     6    39 1   
    14     7     8 ar  
    15     7    40 1   
    16     8     9 ar  
    17     9    10 ar  
    18    10    11 1   
    19    11    12 2   
    20    11    13 2   
    21    11    14 1   
    22    14    15 1   
    23    14    56 1   
    24    15    16 ar  
    25    15    18 ar  
    26    16    17 ar  
    27    16    41 1   
    28    17    20 ar  
    29    17    42 1   
    30    18    19 ar  
    31    18    43 1   
    32    19    20 ar  
    33    19    44 1   
    34    20    21 1   
    35    21    22 2   
    36    21    23 1   
    37    23    24 1   
    38    23    26 1   
    39    24    25 1   
    40    24    45 1   
    41    24    46 1   
    42    25    28 1   
    43    25    47 1   
    44    25    48 1   
    45    26    27 1   
    46    26    49 1   
    47    26    50 1   
    48    27    28 1   
    49    27    51 1   
    50    27    52 1   
    51    28    29 1   
    52    29    30 ar  
    53    29    34 ar  
    54    30    31 ar  
    55    31    32 ar  
    56    31    53 1   
    57    32    33 ar  
    58    32    54 1   
    59    33    34 ar  
    60    34    55 1   
@<TRIPOS>SUBSTRUCTURE
     1 NZT         1 TEMP              0 ****  ****    0 ROOT
