@<TRIPOS>MOLECULE
NZT
   56    60     1     0     0
SMALL
abcg2


@<TRIPOS>ATOM
      1 CAI          2.6360     1.3780     1.8290 ca         1 NZT       0.032000
      2 CAE          1.9760     2.5900     1.5500 ca         1 NZT      -0.138000
      3 CAO          2.1550     3.2110     0.3450 ca         1 NZT      -0.034000
      4 CBD          2.9920     2.6400    -0.6390 ca         1 NZT      -0.102000
      5 CAN          3.1980     3.2330    -1.9030 ca         1 NZT      -0.042000
      6 CAD          4.0090     2.6110    -2.8090 ca         1 NZT      -0.174000
      7 CAF          4.6090     1.3890    -2.4490 ca         1 NZT       0.388900
      8 NAW          4.4470     0.8140    -1.2850 nb         1 NZT      -0.712000
      9 CBE          3.6600     1.4220    -0.3730 ca         1 NZT       0.340000
     10 CBC          3.4630     0.8160     0.8940 ca         1 NZT      -0.287500
     11 S1           4.3100    -0.6940     1.2780 sy         1 NZT       1.147600
     12 OAB          5.7390    -0.5220     1.1070 o          1 NZT      -0.525000
     13 OAC          3.8030    -1.1640     2.5540 o          1 NZT      -0.525000
     14 NAX          3.8350    -1.7870     0.1080 nu         1 NZT      -0.838100
     15 CAZ          2.4460    -2.0040    -0.0710 ca         1 NZT       0.254000
     16 CAJ          1.8220    -1.5630    -1.2340 ca         1 NZT      -0.124000
     17 CAL          0.4640    -1.7630    -1.4110 ca         1 NZT      -0.064000
     18 CAK          1.7060    -2.6740     0.8990 ca         1 NZT      -0.124000
     19 CAM          0.3490    -2.8740     0.7120 ca         1 NZT      -0.064000
     20 CBA         -0.2880    -2.4010    -0.4300 ca         1 NZT      -0.152600
     21 CAY         -1.7410    -2.6900    -0.6330 c          1 NZT       0.619700
     22 OAA         -2.1490    -3.8380    -0.5300 o          1 NZT      -0.585100
     23 NBF         -2.5350    -1.6510    -0.9740 n          1 NZT      -0.406800
     24 CAQ         -2.2400    -0.2530    -0.7220 c6         1 NZT       0.085000
     25 CAS         -3.1390     0.2910     0.3770 c6         1 NZT       0.191300
     26 CAR         -3.9290    -1.8600    -1.3100 c6         1 NZT       0.085000
     27 CAT         -4.8510    -1.3290    -0.2250 c6         1 NZT       0.191300
     28 NBG         -4.5400     0.0560     0.0740 nh         1 NZT      -0.771300
     29 CBB         -5.4880     0.9180     0.5470 ca         1 NZT       0.571900
     30 NAV         -5.0790     2.0860     1.0350 nb         1 NZT      -0.731000
     31 CAH         -5.9940     2.9490     1.4520 ca         1 NZT       0.340900
     32 CAG         -7.3460     2.6720     1.4050 ca         1 NZT       0.222900
     33 NAU         -7.7700     1.4990     0.9360 nb         1 NZT      -0.605000
     34 CAP         -6.8760     0.6320     0.5170 ca         1 NZT       0.233900
     35 H1           2.4800     0.9010     2.7870 ha         1 NZT       0.149000
     36 H2           1.3290     3.0230     2.2990 ha         1 NZT       0.127000
     37 H3           1.6530     4.1460     0.1290 ha         1 NZT       0.121000
     38 H4           2.7100     4.1710    -2.1390 ha         1 NZT       0.124000
     39 H5           4.1910     3.0310    -3.7880 ha         1 NZT       0.132000
     40 H6           5.2430     0.8730    -3.1600 h4         1 NZT       0.028100
     41 H10          2.3930    -1.0600    -2.0030 ha         1 NZT       0.136500
     42 H11         -0.0060    -1.4110    -2.3210 ha         1 NZT       0.127500
     43 H12          2.1890    -3.0540     1.7870 ha         1 NZT       0.136500
     44 H13         -0.2170    -3.4000     1.4700 ha         1 NZT       0.127500
     45 H14         -1.2060    -0.1200    -0.4160 h1         1 NZT       0.067450
     46 H15         -2.3890     0.3190    -1.6430 h1         1 NZT       0.067450
     47 H16         -2.8700    -0.1810     1.3310 h1         1 NZT       0.059950
     48 H17         -2.9620     1.3580     0.4780 h1         1 NZT       0.059950
     49 H18         -4.1370    -1.3370    -2.2470 h1         1 NZT       0.067450
     50 H19         -4.1220    -2.9180    -1.4670 h1         1 NZT       0.067450
     51 H20         -5.8690    -1.4250    -0.5950 h1         1 NZT       0.059950
     52 H21         -4.7690    -1.9500     0.6760 h1         1 NZT       0.059950
     53 H22         -5.6350     3.8950     1.8410 h4         1 NZT       0.024100
     54 H23         -8.0860     3.3830     1.7490 h4         1 NZT       0.032100
     55 H24         -7.2610    -0.3090     0.1480 h4         1 NZT       0.028100
     56 H7           4.3170    -1.5610    -0.7600 hn         1 NZT       0.499000
@<TRIPOS>BOND
     1     1     2 ar  
     2     1    10 ar  
     3     1    35 1   
     4     2     3 ar  
     5     2    36 1   
     6     3     4 ar  
     7     3    37 1   
     8     4     5 ar  
     9     4     9 ar  
    10     5     6 ar  
    11     5    38 1   
    12     6     7 ar  
    13     6    39 1   
    14     7     8 ar  
    15     7    40 1   
    16     8     9 ar  
    17     9    10 ar  
    18    10    11 1   
    19    11    12 2   
    20    11    13 2   
    21    11    14 1   
    22    14    15 1   
    23    14    56 1   
    24    15    16 ar  
    25    15    18 ar  
    26    16    17 ar  
    27    16    41 1   
    28    17    20 ar  
    29    17    42 1   
    30    18    19 ar  
    31    18    43 1   
    32    19    20 ar  
    33    19    44 1   
    34    20    21 1   
    35    21    22 2   
    36    21    23 1   
    37    23    24 1   
    38    23    26 1   
    39    24    25 1   
    40    24    45 1   
    41    24    46 1   
    42    25    28 1   
    43    25    47 1   
    44    25    48 1   
    45    26    27 1   
    46    26    49 1   
    47    26    50 1   
    48    27    28 1   
    49    27    51 1   
    50    27    52 1   
    51    28    29 1   
    52    29    30 ar  
    53    29    34 ar  
    54    30    31 ar  
    55    31    32 ar  
    56    31    53 1   
    57    32    33 ar  
    58    32    54 1   
    59    33    34 ar  
    60    34    55 1   
@<TRIPOS>SUBSTRUCTURE
     1 NZT         1 TEMP              0 ****  ****    0 ROOT
