@<TRIPOS>MOLECULE
NZU
   46    49     1     0     0
SMALL
abcg2


@<TRIPOS>ATOM
      1 C1           4.5540     3.9230     0.0240 c3         1 NZU       0.081900
      2 N2           3.1550     3.5900    -0.0020 na         1 NZU      -0.021100
      3 C3           2.5980     2.3640    -0.0110 ca         1 NZU       0.167500
      4 C4           1.2160     2.5540    -0.0090 ca         1 NZU      -0.396900
      5 C5           1.0520     3.9570     0.0060 cc         1 NZU       0.387800
      6 N6           2.2190     4.5520     0.0120 nd         1 NZU      -0.523100
      7 C7           0.4490     1.3690    -0.0210 ca         1 NZU       0.462900
      8 N8           1.0670     0.1950    -0.0300 nb         1 NZU      -0.312000
      9 C9           2.4090     0.1540    -0.0260 cp         1 NZU       0.277500
     10 N10          3.2280     1.1920    -0.0200 nb         1 NZU      -0.236000
     11 C11          3.0270    -1.1860    -0.0210 cp         1 NZU      -0.100500
     12 C12          4.3950    -1.3190     0.0200 ca         1 NZU      -0.074000
     13 C13          5.0360    -2.5820     0.0410 ca         1 NZU      -0.118000
     14 C14          4.3250    -3.7480     0.0270 ca         1 NZU      -0.060000
     15 C15          2.9170    -3.6540    -0.0150 ca         1 NZU      -0.084000
     16 C16          2.2630    -2.3850    -0.0450 ca         1 NZU      -0.110000
     17 C17          0.9120    -2.7180    -0.1020 cc         1 NZU      -0.178100
     18 N18          0.8720    -4.0520    -0.0970 na         1 NZU       0.009500
     19 N19          2.0410    -4.6610    -0.0440 nc         1 NZU      -0.287400
     20 N21         -0.8900     1.3980    -0.0220 nu         1 NZU      -0.931100
     21 C22         -1.7290     0.2230    -0.0270 c3         1 NZU       0.245800
     22 C23         -3.1880     0.6520     0.0130 c3         1 NZU      -0.079400
     23 C24         -4.1220    -0.5460     0.0130 c3         1 NZU      -0.300400
     24 S25         -5.8270     0.0350     0.0260 s6         1 NZU       1.100000
     25 O26         -6.0530     0.7260     1.2870 o          1 NZU      -0.517000
     26 O27         -6.0730     0.7210    -1.2330 o          1 NZU      -0.517000
     27 C28         -6.7850    -1.4730     0.0360 c3         1 NZU      -0.335100
     28 H1           4.8300     4.3700     0.9770 h1         1 NZU       0.059367
     29 H1A          5.1290     3.0130    -0.1180 h1         1 NZU       0.059367
     30 H1B          4.7890     4.6180    -0.7790 h1         1 NZU       0.059367
     31 H5           0.1490     4.5470     0.0110 h4         1 NZU       0.046800
     32 H12          5.0080    -0.4290     0.0400 ha         1 NZU       0.133000
     33 H13          6.1170    -2.6110     0.0690 ha         1 NZU       0.114000
     34 H14          4.8150    -4.7120     0.0450 ha         1 NZU       0.126000
     35 H17          0.0220    -2.1240    -0.1620 h4         1 NZU       0.236000
     36 HN21        -1.3390     2.2970    -0.0150 hn         1 NZU       0.502000
     37 H22         -1.5370    -0.3750    -0.9220 h1         1 NZU       0.052200
     38 H22A        -1.4980    -0.4070     0.8370 h1         1 NZU       0.052200
     39 H23         -3.3690     1.2520     0.9070 hc         1 NZU       0.067700
     40 H23A        -3.4060     1.2810    -0.8550 hc         1 NZU       0.067700
     41 H24         -3.9910    -1.1630    -0.8780 h1         1 NZU       0.096200
     42 H24A        -3.9780    -1.1730     0.8950 h1         1 NZU       0.096200
     43 H28         -6.5710    -2.0490     0.9340 h1         1 NZU       0.104700
     44 H28A        -7.8320    -1.1740     0.0400 h1         1 NZU       0.104700
     45 H28B        -6.5770    -2.0560    -0.8580 h1         1 NZU       0.104700
     46 HN18         0.0310    -4.6040    -0.1440 hn         1 NZU       0.364000
@<TRIPOS>BOND
     1     1     2 1   
     2     1    28 1   
     3     1    29 1   
     4     1    30 1   
     5     2     3 1   
     6     2     6 1   
     7     3     4 ar  
     8     3    10 ar  
     9     4     5 1   
    10     4     7 ar  
    11     5     6 2   
    12     5    31 1   
    13     7     8 ar  
    14     7    20 1   
    15     8     9 ar  
    16     9    10 ar  
    17     9    11 1   
    18    11    12 ar  
    19    11    16 ar  
    20    12    13 ar  
    21    12    32 1   
    22    13    14 ar  
    23    13    33 1   
    24    14    15 ar  
    25    14    34 1   
    26    15    16 ar  
    27    15    19 2   
    28    16    17 2   
    29    17    18 1   
    30    17    35 1   
    31    18    19 1   
    32    18    46 1   
    33    20    21 1   
    34    20    36 1   
    35    21    22 1   
    36    21    37 1   
    37    21    38 1   
    38    22    23 1   
    39    22    39 1   
    40    22    40 1   
    41    23    24 1   
    42    23    41 1   
    43    23    42 1   
    44    24    25 2   
    45    24    26 2   
    46    24    27 1   
    47    27    43 1   
    48    27    44 1   
    49    27    45 1   
@<TRIPOS>SUBSTRUCTURE
     1 NZU         1 TEMP              0 ****  ****    0 ROOT
