@<TRIPOS>MOLECULE
NZU
   46    49     1     0     0
SMALL
No Charge or Current Charge


@<TRIPOS>ATOM
      1 C1           4.5150     4.0340    -0.1410 c3         1 NZU       0.081900
      2 N2           3.0890     3.6700    -0.1250 na         1 NZU      -0.021100
      3 C3           2.6440     2.3620    -0.0790 ca         1 NZU       0.167500
      4 C4           1.2890     2.4610    -0.0780 ca         1 NZU      -0.396900
      5 C5           0.9640     3.8590    -0.1250 cc         1 NZU       0.387800
      6 N6           2.0680     4.6180    -0.1540 nd         1 NZU      -0.523100
      7 C7           0.5110     1.3170    -0.0340 ca         1 NZU       0.462900
      8 N8           1.1050     0.1110     0.0060 nb         1 NZU      -0.312000
      9 C9           2.4620     0.0710     0.0020 cp         1 NZU       0.277500
     10 N10          3.2610     1.1690    -0.0380 nb         1 NZU      -0.236000
     11 C11          3.1430    -1.2780     0.0850 cp         1 NZU      -0.100500
     12 C12          4.5270    -1.3800     0.4190 ca         1 NZU      -0.074000
     13 C13          5.1790    -2.6270     0.5080 ca         1 NZU      -0.118000
     14 C14          4.4730    -3.8180     0.2620 ca         1 NZU      -0.060000
     15 C15          3.1150    -3.7410    -0.0740 ca         1 NZU      -0.084000
     16 C16          2.4800    -2.5160    -0.1570 ca         1 NZU      -0.110000
     17 C17          1.1400    -2.8440    -0.5310 cc         1 NZU      -0.178100
     18 N18          1.0710    -4.2280    -0.6320 na         1 NZU       0.009500
     19 N19          2.2950    -4.8350    -0.3530 nc         1 NZU      -0.287400
     20 N21         -0.8710     1.3770    -0.0270 nu         1 NZU      -0.931100
     21 C22         -1.8030     0.2420     0.0300 c3         1 NZU       0.245800
     22 C23         -3.2620     0.7380     0.0380 c3         1 NZU      -0.079400
     23 C24         -4.2920    -0.4230     0.0990 c3         1 NZU      -0.300400
     24 S25         -6.0130     0.1370     0.1100 s6         1 NZU       1.100000
     25 O26         -6.2440     0.8760     1.3570 o          1 NZU      -0.517000
     26 O27         -6.2910     0.7850    -1.1770 o          1 NZU      -0.517000
     27 C28         -6.9730    -1.3730     0.1820 c3         1 NZU      -0.335100
     28 H1           5.0000     3.6560     0.7670 h1         1 NZU       0.059367
     29 H1A          4.9960     3.5900    -1.0210 h1         1 NZU       0.059367
     30 H1B          4.6240     5.1240    -0.1820 h1         1 NZU       0.059367
     31 H5           0.0090     4.3680    -0.1390 h4         1 NZU       0.046800
     32 H12          5.1100    -0.4850     0.6240 ha         1 NZU       0.133000
     33 H13          6.2340    -2.6690     0.7680 ha         1 NZU       0.114000
     34 H14          4.9740    -4.7810     0.3280 ha         1 NZU       0.126000
     35 H17          0.2650    -2.2370    -0.7340 h4         1 NZU       0.236000
     36 HN21        -1.2710     2.3130    -0.0570 hn         1 NZU       0.502000
     37 H22         -1.6510    -0.4150    -0.8380 h1         1 NZU       0.052200
     38 H22A        -1.6190    -0.3510     0.9380 h1         1 NZU       0.052200
     39 H23         -3.4090     1.4000     0.9020 hc         1 NZU       0.067700
     40 H23A        -3.4400     1.3370    -0.8640 hc         1 NZU       0.067700
     41 H24         -4.1890    -1.0780    -0.7750 h1         1 NZU       0.096200
     42 H24A        -4.1560    -1.0140     1.0120 h1         1 NZU       0.096200
     43 H28         -6.6970    -1.9010     1.1000 h1         1 NZU       0.104700
     44 H28A        -8.0310    -1.0900     0.1910 h1         1 NZU       0.104700
     45 H28B        -6.7300    -1.9660    -0.7060 h1         1 NZU       0.104700
     46 HN18         0.2550    -4.7820    -0.8800 hn         1 NZU       0.364000
@<TRIPOS>BOND
     1     1     2 1   
     2     1    28 1   
     3     1    29 1   
     4     1    30 1   
     5     2     3 1   
     6     2     6 1   
     7     3     4 ar  
     8     3    10 ar  
     9     4     5 1   
    10     4     7 ar  
    11     5     6 2   
    12     5    31 1   
    13     7     8 ar  
    14     7    20 1   
    15     8     9 ar  
    16     9    10 ar  
    17     9    11 1   
    18    11    12 ar  
    19    11    16 ar  
    20    12    13 ar  
    21    12    32 1   
    22    13    14 ar  
    23    13    33 1   
    24    14    15 ar  
    25    14    34 1   
    26    15    16 ar  
    27    15    19 2   
    28    16    17 2   
    29    17    18 1   
    30    17    35 1   
    31    18    19 1   
    32    18    46 1   
    33    20    21 1   
    34    20    36 1   
    35    21    22 1   
    36    21    37 1   
    37    21    38 1   
    38    22    23 1   
    39    22    39 1   
    40    22    40 1   
    41    23    24 1   
    42    23    41 1   
    43    23    42 1   
    44    24    25 2   
    45    24    26 2   
    46    24    27 1   
    47    27    43 1   
    48    27    44 1   
    49    27    45 1   
@<TRIPOS>SUBSTRUCTURE
     1 NZU         1 TEMP              0 ****  ****    0 ROOT
