@<TRIPOS>MOLECULE
NZV
   55    57     1     0     0
SMALL
bcc


@<TRIPOS>ATOM
      1 OBJ          5.0570    -2.2490     0.4450 o          1 NZV      -0.588100
      2 CAK          4.6220    -1.1090     0.4390 c          1 NZV       0.571800
      3 CAD          5.5460     0.0830     0.6070 ce         1 NZV       0.307300
      4 CAE          5.3670     1.2700    -0.2480 cc         1 NZV       0.389000
      5 CAF          6.3660     1.9690    -0.8380 cd         1 NZV      -0.186400
      6 SAG          5.6950     3.2710    -1.7540 ss         1 NZV      -0.319300
      7 CAH          4.1000     2.7580    -1.2730 cd         1 NZV       0.726300
      8 NAI          2.9840     3.4210    -1.6440 nv         1 NZV      -0.931500
      9 NAJ          4.0990     1.7240    -0.4910 nc         1 NZV      -0.703000
     10 NAC          6.5340     0.1360     1.4110 n2         1 NZV      -0.453200
     11 OAB          6.7200    -0.9560     2.1750 os         1 NZV      -0.141300
     12 CAA          7.8040    -0.7440     3.0650 c3         1 NZV       0.134700
     13 N            3.3300    -0.7940     0.3070 ns         1 NZV      -0.512900
     14 CA           2.3610    -1.7960    -0.0520 c3         1 NZV      -0.054300
     15 C            2.5980    -2.4160    -1.4570 c          1 NZV       0.930600
     16 O            3.3160    -1.7910    -2.2460 o          1 NZV      -0.812300
     17 CB           0.9710    -1.1670     0.0290 c6         1 NZV       0.358600
     18 SAV          0.7510     0.1410    -1.2600 ss         1 NZV      -0.453200
     19 CAU         -0.8680     0.6170    -0.5930 c6         1 NZV       0.091900
     20 NAO         -0.0480    -2.1530    -0.0610 nu         1 NZV      -0.706000
     21 CAP         -1.3670    -1.8210    -0.2560 ce         1 NZV       0.139800
     22 CAQ         -2.2640    -3.0630    -0.2470 c          1 NZV       0.916800
     23 OAR         -1.7460    -4.0850    -0.7370 o          1 NZV      -0.806800
     24 OAS         -3.3970    -2.9580     0.2520 o          1 NZV      -0.806800
     25 CAT         -1.8030    -0.5560    -0.4540 c2         1 NZV      -0.335400
     26 CAW         -3.2510    -0.2110    -0.5960 c3         1 NZV       0.171900
     27 SAX         -3.8340     0.3100     1.0620 ss         1 NZV      -0.234300
     28 CAY         -5.4650     0.8440     0.7370 cc         1 NZV       0.730100
     29 NBD         -6.1970     1.1840     1.7960 na         1 NZV      -0.522600
     30 CBE         -5.7380     1.2510     3.1710 c3         1 NZV       0.213100
     31 NAZ         -5.8960     0.8820    -0.4970 nd         1 NZV      -0.762100
     32 CBA         -7.1420     1.3160    -0.7880 c          1 NZV       0.656500
     33 OBG         -7.5880     1.3640    -1.9170 o          1 NZV      -0.528100
     34 CBB         -8.0320     1.7670     0.3550 c          1 NZV       0.584500
     35 NBC         -7.4540     1.6790     1.5700 ns         1 NZV      -0.422300
     36 OBF         -9.1640     2.1750     0.1970 o          1 NZV      -0.621500
     37 H1           7.4280     1.7870    -0.8130 h4         1 NZV       0.177000
     38 H2           3.0170     3.9970    -2.4680 hn         1 NZV       0.429300
     39 H3           2.1280     2.8960    -1.5380 hn         1 NZV       0.429300
     40 H4           7.8990    -1.6590     3.6450 h1         1 NZV       0.026367
     41 H5           8.7370    -0.5640     2.5270 h1         1 NZV       0.026367
     42 H6           7.6130     0.0910     3.7430 h1         1 NZV       0.026367
     43 H7           3.1200     0.1790     0.0900 hn         1 NZV       0.341500
     44 H8           2.3840    -2.5990     0.6920 h1         1 NZV       0.075700
     45 H10          0.8820    -0.6360     0.9830 h2         1 NZV       0.041700
     46 H11         -0.7170     1.1520     0.3490 h1         1 NZV       0.033700
     47 H12         -1.2850     1.3420    -1.2960 h1         1 NZV       0.033700
     48 H15         -3.3900     0.6320    -1.2710 h1         1 NZV       0.082700
     49 H16         -3.8720    -1.0380    -0.9200 h1         1 NZV       0.082700
     50 H17         -5.3280     2.2340     3.3990 h1         1 NZV       0.055700
     51 H18         -6.5740     1.0380     3.8330 h1         1 NZV       0.055700
     52 H19         -4.9850     0.4880     3.3430 h1         1 NZV       0.055700
     53 H20         -7.9840     1.9060     2.4010 hn         1 NZV       0.311500
     54 O1           1.9920    -3.4920    -1.6550 o          1 NZV      -0.812300
     55 H9           0.2270    -3.0220    -0.5090 hn         1 NZV       0.502800
@<TRIPOS>BOND
     1     1     2 2   
     2     2     3 1   
     3     2    13 1   
     4     3     4 1   
     5     3    10 2   
     6     4     5 2   
     7     4     9 1   
     8     5     6 1   
     9     5    37 1   
    10     6     7 1   
    11     7     8 1   
    12     7     9 2   
    13     8    38 1   
    14     8    39 1   
    15    10    11 1   
    16    11    12 1   
    17    12    40 1   
    18    12    41 1   
    19    12    42 1   
    20    13    14 1   
    21    13    43 1   
    22    14    15 1   
    23    14    17 1   
    24    14    44 1   
    25    15    16 1   
    26    15    54 1   
    27    17    18 1   
    28    17    20 1   
    29    17    45 1   
    30    18    19 1   
    31    19    25 1   
    32    19    46 1   
    33    19    47 1   
    34    20    21 1   
    35    20    55 1   
    36    21    22 1   
    37    21    25 2   
    38    22    23 1   
    39    22    24 1   
    40    25    26 1   
    41    26    27 1   
    42    26    48 1   
    43    26    49 1   
    44    27    28 1   
    45    28    29 1   
    46    28    31 2   
    47    29    30 1   
    48    29    35 1   
    49    30    50 1   
    50    30    51 1   
    51    30    52 1   
    52    31    32 1   
    53    32    33 2   
    54    32    34 1   
    55    34    35 1   
    56    34    36 2   
    57    35    53 1   
@<TRIPOS>SUBSTRUCTURE
     1 NZV         1 TEMP              0 ****  ****    0 ROOT
