@<TRIPOS>MOLECULE
NZV
   55    57     1     0     0
SMALL
No Charge or Current Charge


@<TRIPOS>ATOM
      1 OBJ          3.1470    -1.0910     1.6930 o          1 NZV      -0.588100
      2 CAK          3.7990    -0.6240     0.7610 c          1 NZV       0.504800
      3 CAD          5.0700     0.2020     0.9690 ce         1 NZV       0.307300
      4 CAE          5.7130     0.9390    -0.1560 cc         1 NZV       0.323700
      5 CAF          7.0170     1.4030    -0.1730 cd         1 NZV      -0.248000
      6 SAG          7.3980     2.2410    -1.6680 ss         1 NZV      -0.174400
      7 CAH          5.7490     1.9100    -2.1330 cd         1 NZV       0.726300
      8 NAI          5.2020     2.2450    -3.3010 nv         1 NZV      -1.041900
      9 NAJ          4.9990     1.2450    -1.3020 nc         1 NZV      -0.703000
     10 NAC          5.7350    -0.0010     2.0780 n2         1 NZV      -0.354700
     11 OAB          6.1170     1.1840     2.7420 os         1 NZV      -0.263000
     12 CAA          6.8450     0.8710     3.9420 c3         1 NZV       0.157900
     13 N            3.4510    -0.9500    -0.5400 ns         1 NZV      -0.445900
     14 CA           2.2750    -1.7710    -0.9490 c3         1 NZV      -0.054300
     15 C            2.3690    -2.1710    -2.4440 c          1 NZV       0.720000
     16 O            3.0400    -1.4810    -3.2020 o          1 NZV      -0.707000
     17 CB           0.9050    -1.1230    -0.5860 c6         1 NZV       0.406500
     18 SAV          0.6630     0.5040    -1.3830 ss         1 NZV      -0.549000
     19 CAU         -0.9510     0.8420    -0.5880 c6         1 NZV       0.139800
     20 NAO         -0.2240    -1.9600    -0.9610 nu         1 NZV      -0.761200
     21 CAP         -1.5980    -1.5870    -0.8740 ce         1 NZV       0.139800
     22 CAQ         -2.5620    -2.8090    -0.9820 c          1 NZV       0.706200
     23 OAR         -2.0560    -3.9200    -1.1290 o          1 NZV      -0.701500
     24 OAS         -3.7770    -2.6630    -0.9340 o          1 NZV      -0.701500
     25 CAT         -1.9740    -0.2830    -0.6820 c2         1 NZV      -0.335400
     26 CAW         -3.4010     0.2320    -0.5270 c3         1 NZV       0.219800
     27 SAX         -3.9020     0.0360     1.2380 ss         1 NZV      -0.282200
     28 CAY         -5.5410     0.6650     1.2240 cc         1 NZV       0.730100
     29 NBD         -6.2960     0.6350     2.4090 na         1 NZV      -0.522600
     30 CBE         -5.7890     0.0830     3.6910 c3         1 NZV       0.213100
     31 NAZ         -6.0620     1.2000     0.1370 nd         1 NZV      -0.762100
     32 CBA         -7.3700     1.7250     0.1240 c          1 NZV       0.656500
     33 OBG         -7.7830     2.2050    -0.9270 o          1 NZV      -0.528100
     34 CBB         -8.2760     1.6900     1.4500 c          1 NZV       0.442000
     35 NBC         -7.6390     1.1230     2.5430 ns         1 NZV      -0.355300
     36 OBF         -9.4280     2.1140     1.5220 o          1 NZV      -0.546000
     37 H1           7.7650     1.2960     0.6030 h4         1 NZV       0.159000
     38 H2           5.8410     2.4170    -4.0670 hn         1 NZV       0.484500
     39 H3           4.3510     1.7470    -3.5270 hn         1 NZV       0.484500
     40 H4           7.1410     1.7940     4.4570 h1         1 NZV       0.026367
     41 H5           6.2280     0.2790     4.6300 h1         1 NZV       0.026367
     42 H6           7.7550     0.3030     3.7100 h1         1 NZV       0.026367
     43 H7           3.9790    -0.4840    -1.2770 hn         1 NZV       0.341500
     44 H8           2.3350    -2.7090    -0.3840 h1         1 NZV       0.075700
     45 H10          0.8830    -0.9400     0.4990 h2         1 NZV       0.041700
     46 H11         -0.7540     1.0600     0.4720 h1         1 NZV       0.033700
     47 H12         -1.3430     1.7620    -1.0440 h1         1 NZV       0.033700
     48 H15         -3.4640     1.2970    -0.7890 h1         1 NZV       0.082700
     49 H16         -4.1020    -0.2960    -1.1840 h1         1 NZV       0.082700
     50 H17         -4.8990     0.6400     4.0100 h1         1 NZV       0.055700
     51 H18         -6.5460     0.1540     4.4830 h1         1 NZV       0.055700
     52 H19         -5.5210    -0.9740     3.5610 h1         1 NZV       0.055700
     53 H20         -8.1430     1.0470     3.4240 hn         1 NZV       0.311500
     54 O1           1.9450    -3.2770    -2.7560 o          1 NZV      -0.707000
     55 H9          -0.0550    -2.9510    -1.1580 hn         1 NZV       0.558000
@<TRIPOS>BOND
     1     1     2 2   
     2     2     3 1   
     3     2    13 1   
     4     3     4 1   
     5     3    10 2   
     6     4     5 2   
     7     4     9 1   
     8     5     6 1   
     9     5    37 1   
    10     6     7 1   
    11     7     8 1   
    12     7     9 2   
    13     8    38 1   
    14     8    39 1   
    15    10    11 1   
    16    11    12 1   
    17    12    40 1   
    18    12    41 1   
    19    12    42 1   
    20    13    14 1   
    21    13    43 1   
    22    14    15 1   
    23    14    17 1   
    24    14    44 1   
    25    15    16 1   
    26    15    54 1   
    27    17    18 1   
    28    17    20 1   
    29    17    45 1   
    30    18    19 1   
    31    19    25 1   
    32    19    46 1   
    33    19    47 1   
    34    20    21 1   
    35    20    55 1   
    36    21    22 1   
    37    21    25 2   
    38    22    23 1   
    39    22    24 1   
    40    25    26 1   
    41    26    27 1   
    42    26    48 1   
    43    26    49 1   
    44    27    28 1   
    45    28    29 1   
    46    28    31 2   
    47    29    30 1   
    48    29    35 1   
    49    30    50 1   
    50    30    51 1   
    51    30    52 1   
    52    31    32 1   
    53    32    33 2   
    54    32    34 1   
    55    34    35 1   
    56    34    36 2   
    57    35    53 1   
@<TRIPOS>SUBSTRUCTURE
     1 NZV         1 TEMP              0 ****  ****    0 ROOT
