@<TRIPOS>MOLECULE
NZW
   62    65     1     0     0
SMALL
No Charge or Current Charge


@<TRIPOS>ATOM
      1 C5          20.6060     7.3480    46.5540 ca         1 NZW      -0.059500
      2 C6          19.9730     7.9090    47.6770 ca         1 NZW      -0.171500
      3 C4          21.4920     8.1190    45.7720 ca         1 NZW      -0.133300
      4 C3          21.7410     9.4570    46.1360 ca         1 NZW      -0.059500
      5 C2          21.1080    10.0170    47.2580 ca         1 NZW      -0.171500
      6 C1          20.2230     9.2520    48.0330 ca         1 NZW       0.142100
      7 C14         25.6170     3.2270    43.2900 c          1 NZW       0.600100
      8 C13         27.3830     4.5880    44.5290 c5         1 NZW       0.107000
      9 C19         26.1920    -2.0530    38.1910 ca         1 NZW      -0.072000
     10 C11         25.8940     5.5960    46.1310 c5         1 NZW      -0.083400
     11 C10         24.9790     4.9560    45.0410 c5         1 NZW       0.027700
     12 C20         24.7910    -2.0760    38.2930 ca         1 NZW      -0.070000
     13 C22         22.6390    -2.9910    37.6110 ca         1 NZW      -0.100000
     14 C23         21.9910    -2.1190    38.5000 ca         1 NZW      -0.105000
     15 C16         26.9920     0.6990    40.7450 c          1 NZW       0.504600
     16 C17         26.2120    -0.2910    39.8700 ca         1 NZW       0.313500
     17 N3          24.8470    -0.3210    39.9620 nb         1 NZW      -0.660000
     18 C25         24.1480    -1.1900    39.1950 ca         1 NZW       0.268000
     19 C24         22.7440    -1.2270    39.2850 ca         1 NZW      -0.076000
     20 C21         24.0390    -2.9700    37.5070 ca         1 NZW      -0.096000
     21 C18         26.9070    -1.1480    38.9900 ca         1 NZW      -0.118000
     22 N2          26.2230     1.4940    41.5720 ns         1 NZW      -0.476900
     23 C15         26.7490     2.5180    42.5010 c3         1 NZW       0.028000
     24 O2          24.4350     2.9460    43.1130 o          1 NZW      -0.608100
     25 N1          25.9830     4.2110    44.2310 n          1 NZW      -0.393800
     26 C12         27.1930     5.8950    45.3410 c5         1 NZW      -0.093400
     27 O1          24.5020     6.5210    43.1420 o          1 NZW      -0.585100
     28 N           23.1380     6.4960    44.9840 ns         1 NZW      -0.504900
     29 C7          22.1910     7.5180    44.5550 c3         1 NZW       0.171000
     30 C8          21.1940     6.9580    43.5190 c3         1 NZW      -0.104100
     31 O           19.6320     9.8560    49.1240 os         1 NZW      -0.341100
     32 C           18.7110     9.1590    49.9820 c3         1 NZW       0.148900
     33 H1          20.4070     6.3110    46.2960 ha         1 NZW       0.110000
     34 H2          19.2960     7.2880    48.2570 ha         1 NZW       0.121000
     35 H3          22.4260    10.0660    45.5490 ha         1 NZW       0.110000
     36 H4          21.3060    11.0510    47.5300 ha         1 NZW       0.121000
     37 H5          27.8720     3.8090    45.1300 h1         1 NZW       0.051700
     38 H6          27.9790     4.7600    43.6230 h1         1 NZW       0.051700
     39 H8          25.4610     6.4920    46.5910 hc         1 NZW       0.056700
     40 H9          26.0880     4.8830    46.9410 hc         1 NZW       0.056700
     41 H10         24.2360     4.2810    45.4850 h1         1 NZW       0.076700
     42 H11         22.0570    -3.6820    37.0040 ha         1 NZW       0.116000
     43 H12         20.9060    -2.1330    38.5830 ha         1 NZW       0.118000
     44 H13         22.2360    -0.5550    39.9710 ha         1 NZW       0.135000
     45 H14         24.5370    -3.6480    36.8160 ha         1 NZW       0.117000
     46 H15         27.9920    -1.1090    38.9320 ha         1 NZW       0.149000
     47 H16         25.2170     1.3460    41.5190 hn         1 NZW       0.369500
     48 H17         27.4300     2.0470    43.2190 h1         1 NZW       0.068200
     49 H18         27.3020     3.2770    41.9330 h1         1 NZW       0.068200
     50 H19         28.0480     6.1100    45.9920 hc         1 NZW       0.065700
     51 H20         27.0650     6.7570    44.6750 hc         1 NZW       0.065700
     52 H21         23.0010     6.0710    45.8930 hn         1 NZW       0.312500
     53 H22         22.7620     8.3160    44.0610 h1         1 NZW       0.075700
     54 H23         20.4750     7.7320    43.2250 hc         1 NZW       0.044367
     55 H24         21.7190     6.6240    42.6170 hc         1 NZW       0.044367
     56 H25         20.6370     6.1050    43.9240 hc         1 NZW       0.044367
     57 H26         18.3610     9.8220    50.7830 h1         1 NZW       0.039700
     58 H27         17.8350     8.8170    49.4170 h1         1 NZW       0.039700
     59 H28         19.1930     8.2890    50.4460 h1         1 NZW       0.039700
     60 C9          24.2260     6.0730    44.2490 c          1 NZW       0.596100
     61 H7          26.7160    -2.7190    37.5090 ha         1 NZW       0.122000
     62 O3          28.2160     0.8010    40.7340 o          1 NZW      -0.614100
@<TRIPOS>BOND
     1     1     2 ar  
     2     1     3 ar  
     3     1    33 1   
     4     2     6 ar  
     5     2    34 1   
     6     3     4 ar  
     7     3    29 1   
     8     4     5 ar  
     9     4    35 1   
    10     5     6 ar  
    11     5    36 1   
    12     6    31 1   
    13     7    23 1   
    14     7    24 2   
    15     7    25 1   
    16     8    25 1   
    17     8    26 1   
    18     8    37 1   
    19     8    38 1   
    20     9    12 ar  
    21     9    21 ar  
    22     9    61 1   
    23    10    11 1   
    24    10    26 1   
    25    10    39 1   
    26    10    40 1   
    27    11    25 1   
    28    11    41 1   
    29    11    60 1   
    30    12    18 ar  
    31    12    20 ar  
    32    13    14 ar  
    33    13    20 ar  
    34    13    42 1   
    35    14    19 ar  
    36    14    43 1   
    37    15    16 1   
    38    15    22 1   
    39    15    62 2   
    40    16    17 ar  
    41    16    21 ar  
    42    17    18 ar  
    43    18    19 ar  
    44    19    44 1   
    45    20    45 1   
    46    21    46 1   
    47    22    23 1   
    48    22    47 1   
    49    23    48 1   
    50    23    49 1   
    51    26    50 1   
    52    26    51 1   
    53    27    60 2   
    54    28    29 1   
    55    28    52 1   
    56    28    60 1   
    57    29    30 1   
    58    29    53 1   
    59    30    54 1   
    60    30    55 1   
    61    30    56 1   
    62    31    32 1   
    63    32    57 1   
    64    32    58 1   
    65    32    59 1   
@<TRIPOS>SUBSTRUCTURE
     1 NZW         1 TEMP              0 ****  ****    0 ROOT
