@<TRIPOS>MOLECULE
NZW
   62    65     1     0     0
SMALL
bcc


@<TRIPOS>ATOM
      1 C5          21.3920     7.4480    46.7600 ca         1 NZW      -0.077500
      2 C6          21.6080     8.6830    47.3610 ca         1 NZW      -0.189500
      3 C4          21.1620     7.3340    45.3960 ca         1 NZW      -0.133300
      4 C3          21.1530     8.5000    44.6360 ca         1 NZW      -0.077500
      5 C2          21.3590     9.7400    45.2150 ca         1 NZW      -0.189500
      6 C1          21.5900     9.8420    46.5870 ca         1 NZW       0.142100
      7 C14         24.9650     2.8500    43.7790 c          1 NZW       0.667100
      8 C13         26.3030     4.0430    45.5120 c5         1 NZW       0.107000
      9 C19         26.9850    -0.8440    38.0230 ca         1 NZW      -0.090000
     10 C11         24.4590     4.4550    46.9810 c5         1 NZW      -0.083400
     11 C10         23.8850     3.8860    45.6750 c5         1 NZW       0.027700
     12 C20         25.6000    -1.0630    37.8710 ca         1 NZW      -0.135300
     13 C22         23.6970    -2.0040    36.7290 ca         1 NZW      -0.118000
     14 C23         22.8350    -1.4230    37.6860 ca         1 NZW      -0.123000
     15 C16         26.9770     1.2770    41.1250 c          1 NZW       0.571600
     16 C17         26.4950     0.4450    39.9670 ca         1 NZW       0.378800
     17 N3          25.2060     0.2620    39.8560 nb         1 NZW      -0.660000
     18 C25         24.7340    -0.4790    38.8310 ca         1 NZW       0.398600
     19 C24         23.3390    -0.6760    38.7160 ca         1 NZW      -0.159300
     20 C21         25.0510    -1.8290    36.8190 ca         1 NZW      -0.114000
     21 C18         27.4400    -0.0910    39.0680 ca         1 NZW      -0.201300
     22 N2          26.0080     1.7370    41.9170 ns         1 NZW      -0.543900
     23 C15         26.2710     2.5490    43.0680 c3         1 NZW       0.028000
     24 O2          23.8860     2.4910    43.3220 o          1 NZW      -0.608100
     25 N1          25.0700     3.5210    44.9300 n          1 NZW      -0.460800
     26 C12         25.8080     5.0300    46.5630 c5         1 NZW      -0.093400
     27 O1          23.6080     5.7440    44.1710 o          1 NZW      -0.585100
     28 N           21.7740     4.9610    45.2250 ns         1 NZW      -0.571900
     29 C7          20.8770     5.9960    44.7510 c3         1 NZW       0.171000
     30 C8          19.4380     5.5600    45.0040 c3         1 NZW      -0.104100
     31 O           21.7870    11.0850    47.0730 os         1 NZW      -0.317900
     32 C           22.0170    11.2360    48.4590 c3         1 NZW       0.125700
     33 H1          21.4120     6.5630    47.3840 ha         1 NZW       0.128000
     34 H2          21.7870     8.7190    48.4270 ha         1 NZW       0.139000
     35 H3          20.9860     8.4390    43.5670 ha         1 NZW       0.128000
     36 H4          21.3500    10.6350    44.6060 ha         1 NZW       0.139000
     37 H5          26.8840     3.2360    45.9670 h1         1 NZW       0.051700
     38 H6          26.9270     4.5270    44.7590 h1         1 NZW       0.051700
     39 H8          23.8000     5.1910    47.4430 hc         1 NZW       0.056700
     40 H9          24.5910     3.6420    47.6960 hc         1 NZW       0.056700
     41 H10         23.2610     3.0100    45.8680 h1         1 NZW       0.076700
     42 H11         23.2780    -2.5890    35.9220 ha         1 NZW       0.134000
     43 H12         21.7670    -1.5730    37.5990 ha         1 NZW       0.136000
     44 H13         22.6890    -0.2260    39.4550 ha         1 NZW       0.153000
     45 H14         25.7140    -2.2740    36.0880 ha         1 NZW       0.135000
     46 H15         28.4950     0.0940    39.2100 ha         1 NZW       0.167000
     47 H16         25.0480     1.5150    41.6900 hn         1 NZW       0.369500
     48 H17         26.9580     2.0460    43.7560 h1         1 NZW       0.068200
     49 H18         26.7520     3.4920    42.7850 h1         1 NZW       0.068200
     50 H19         26.5040     5.1180    47.3950 hc         1 NZW       0.065700
     51 H20         25.6850     6.0200    46.1230 hc         1 NZW       0.065700
     52 H21         21.4050     4.2550    45.8430 hn         1 NZW       0.312500
     53 H22         21.0190     6.1040    43.6720 h1         1 NZW       0.075700
     54 H23         18.7480     6.3170    44.6330 hc         1 NZW       0.044367
     55 H24         19.2170     4.6210    44.4950 hc         1 NZW       0.044367
     56 H25         19.2500     5.4290    46.0710 hc         1 NZW       0.044367
     57 H26         22.1470    12.3010    48.6380 h1         1 NZW       0.039700
     58 H27         21.1730    10.8800    49.0550 h1         1 NZW       0.039700
     59 H28         22.9210    10.7130    48.7830 h1         1 NZW       0.039700
     60 C9          23.0820     4.9460    44.9280 c          1 NZW       0.663100
     61 H7          27.6760    -1.2740    37.3080 ha         1 NZW       0.140000
     62 O3          28.1680     1.4960    41.2980 o          1 NZW      -0.614100
@<TRIPOS>BOND
     1     1     2 ar  
     2     1     3 ar  
     3     1    33 1   
     4     2     6 ar  
     5     2    34 1   
     6     3     4 ar  
     7     3    29 1   
     8     4     5 ar  
     9     4    35 1   
    10     5     6 ar  
    11     5    36 1   
    12     6    31 1   
    13     7    23 1   
    14     7    24 2   
    15     7    25 1   
    16     8    25 1   
    17     8    26 1   
    18     8    37 1   
    19     8    38 1   
    20     9    12 ar  
    21     9    21 ar  
    22     9    61 1   
    23    10    11 1   
    24    10    26 1   
    25    10    39 1   
    26    10    40 1   
    27    11    25 1   
    28    11    41 1   
    29    11    60 1   
    30    12    18 ar  
    31    12    20 ar  
    32    13    14 ar  
    33    13    20 ar  
    34    13    42 1   
    35    14    19 ar  
    36    14    43 1   
    37    15    16 1   
    38    15    22 1   
    39    15    62 2   
    40    16    17 ar  
    41    16    21 ar  
    42    17    18 ar  
    43    18    19 ar  
    44    19    44 1   
    45    20    45 1   
    46    21    46 1   
    47    22    23 1   
    48    22    47 1   
    49    23    48 1   
    50    23    49 1   
    51    26    50 1   
    52    26    51 1   
    53    27    60 2   
    54    28    29 1   
    55    28    52 1   
    56    28    60 1   
    57    29    30 1   
    58    29    53 1   
    59    30    54 1   
    60    30    55 1   
    61    30    56 1   
    62    31    32 1   
    63    32    57 1   
    64    32    58 1   
    65    32    59 1   
@<TRIPOS>SUBSTRUCTURE
     1 NZW         1 TEMP              0 ****  ****    0 ROOT
