@<TRIPOS>MOLECULE
NZX
   68    73     1     0     0
SMALL
abcg2


@<TRIPOS>ATOM
      1 C1         -22.3970    -6.5670    -6.6760 ca         1 NZX      -0.071000
      2 C2         -21.0220    -6.2220    -6.6270 ca         1 NZX      -0.109300
      3 C3         -20.8080    -7.6180    -4.6860 ca         1 NZX      -0.220900
      4 C11        -20.2110    -6.7430    -5.6210 ca         1 NZX       0.082000
      5 C12        -18.2070    -5.1900    -5.2310 cc         1 NZX      -0.102300
      6 C15        -17.6840    -7.3210    -5.6260 cd         1 NZX       0.285300
      7 C16        -18.8520    -3.8750    -4.9680 c3         1 NZX      -0.035800
      8 C17        -17.7330    -8.7770    -5.9810 c6         1 NZX      -0.093000
      9 C18        -15.8340    -4.4130    -4.9330 cy         1 NZX       0.078300
     10 C19        -14.8770    -4.6570    -3.7440 cy         1 NZX      -0.078900
     11 C20        -13.7350    -4.0980    -4.6160 cy         1 NZX      -0.117000
     12 C21        -14.6040    -4.3480    -5.8650 cy         1 NZX      -0.078900
     13 C22        -13.2260    -2.6570    -4.3370 cy         1 NZX       0.120500
     14 C24        -12.2770    -4.5900    -4.4960 cy         1 NZX       0.120500
     15 C27         -9.4710    -3.4560    -3.9930 c3         1 NZX      -0.151400
     16 C28         -8.6780    -3.2710    -5.2910 c3         1 NZX      -0.083100
     17 C29        -17.2950    -9.0170    -7.4380 c6         1 NZX      -0.066900
     18 C30        -17.3900   -10.4960    -7.8140 c6         1 NZX      -0.073900
     19 C4         -22.1800    -7.9430    -4.7690 ca         1 NZX      -0.034200
     20 C5         -22.9990    -7.4150    -5.7710 ca         1 NZX      -0.133000
     21 C6         -20.3450    -8.3340    -3.5450 cc         1 NZX       0.361800
     22 N7         -21.3240    -9.0280    -2.9880 nd         1 NZX      -0.519100
     23 C8         -20.4740    -5.3010    -7.6860 c3         1 NZX      -0.039800
     24 N9         -22.4310    -8.7890    -3.7310 na         1 NZX      -0.079400
     25 C10        -18.7790    -6.4260    -5.5030 cd         1 NZX      -0.165000
     26 N13        -16.8630    -5.3870    -5.2100 na         1 NZX       0.123800
     27 N14        -16.5320    -6.6790    -5.4500 nc         1 NZX      -0.526800
     28 N23        -11.8730    -3.2040    -4.2200 nj         1 NZX      -0.431800
     29 O26        -10.6530    -1.3630    -3.8090 o          1 NZX      -0.617100
     30 C31        -16.5870   -11.3710    -6.8500 c6         1 NZX      -0.075400
     31 C32        -17.0110   -11.1320    -5.3990 c6         1 NZX      -0.073900
     32 C33        -16.9120    -9.6530    -5.0240 c6         1 NZX      -0.066900
     33 H1         -22.9970    -6.1460    -7.4750 ha         1 NZX       0.111000
     34 H2         -18.5180    -3.4460    -4.0210 hc         1 NZX       0.054367
     35 H3         -18.6310    -3.1530    -5.7580 hc         1 NZX       0.054367
     36 H4         -19.9320    -4.0040    -4.9210 hc         1 NZX       0.054367
     37 H5         -18.7780    -9.0880    -5.9010 hc         1 NZX       0.061700
     38 H6         -16.3180    -3.4440    -4.8550 h1         1 NZX       0.071700
     39 H7         -15.0970    -4.1490    -2.8060 hc         1 NZX       0.073700
     40 H8         -14.7460    -5.7250    -3.5680 hc         1 NZX       0.073700
     41 H9         -14.3950    -5.3270    -6.2950 hc         1 NZX       0.073700
     42 H10        -14.6020    -3.5880    -6.6460 hc         1 NZX       0.073700
     43 H11        -13.3380    -1.9530    -5.1650 h1         1 NZX       0.059200
     44 H12        -13.5910    -2.2000    -3.4160 h1         1 NZX       0.059200
     45 H13        -12.0890    -5.2770    -3.6690 h1         1 NZX       0.059200
     46 H14        -11.8530    -4.9960    -5.4170 h1         1 NZX       0.059200
     47 H15         -8.8630    -3.1530    -3.1380 hc         1 NZX       0.058700
     48 H16         -9.7320    -4.5060    -3.8600 hc         1 NZX       0.058700
     49 H17         -7.7640    -3.8660    -5.2670 hc         1 NZX       0.041700
     50 H18         -9.2660    -3.5850    -6.1560 hc         1 NZX       0.041700
     51 H19         -8.4010    -2.2240    -5.4280 hc         1 NZX       0.041700
     52 H20        -16.2620    -8.6730    -7.5530 hc         1 NZX       0.044200
     53 H21        -17.9100    -8.4120    -8.1080 hc         1 NZX       0.044200
     54 H22        -18.4410   -10.8050    -7.7900 hc         1 NZX       0.038700
     55 H23        -17.0410   -10.6430    -8.8400 hc         1 NZX       0.038700
     56 H24        -24.0500    -7.6630    -5.8380 ha         1 NZX       0.120000
     57 H25        -19.3520    -8.3660    -3.1270 h4         1 NZX       0.052800
     58 H27        -20.5030    -4.2560    -7.3660 hc         1 NZX       0.040700
     59 H28        -19.4350    -5.5370    -7.9170 hc         1 NZX       0.040700
     60 H29        -21.0600    -5.3770    -8.6030 hc         1 NZX       0.040700
     61 H30        -16.7050   -12.4270    -7.1100 hc         1 NZX       0.037200
     62 H31        -15.5210   -11.1360    -6.9550 hc         1 NZX       0.037200
     63 H32        -18.0460   -11.4660    -5.2680 hc         1 NZX       0.038700
     64 H33        -16.3970   -11.7310    -4.7210 hc         1 NZX       0.038700
     65 H34        -15.8660    -9.3330    -5.0610 hc         1 NZX       0.044200
     66 H35        -17.2560    -9.4960    -3.9980 hc         1 NZX       0.044200
     67 H26        -23.3060    -9.2210    -3.4790 hn         1 NZX       0.375000
     68 C25        -10.7120    -2.5880    -3.9890 c          1 NZX       0.611100
@<TRIPOS>BOND
     1     1     2 ar  
     2     1    20 ar  
     3     1    33 1   
     4     2     4 ar  
     5     2    23 1   
     6     3     4 ar  
     7     3    19 ar  
     8     3    21 1   
     9     4    25 1   
    10     5     7 1   
    11     5    25 2   
    12     5    26 1   
    13     6     8 1   
    14     6    25 1   
    15     6    27 2   
    16     7    34 1   
    17     7    35 1   
    18     7    36 1   
    19     8    17 1   
    20     8    32 1   
    21     8    37 1   
    22     9    10 1   
    23     9    12 1   
    24     9    26 1   
    25     9    38 1   
    26    10    11 1   
    27    10    39 1   
    28    10    40 1   
    29    11    12 1   
    30    11    13 1   
    31    11    14 1   
    32    12    41 1   
    33    12    42 1   
    34    13    28 1   
    35    13    43 1   
    36    13    44 1   
    37    14    28 1   
    38    14    45 1   
    39    14    46 1   
    40    15    16 1   
    41    15    47 1   
    42    15    48 1   
    43    15    68 1   
    44    16    49 1   
    45    16    50 1   
    46    16    51 1   
    47    17    18 1   
    48    17    52 1   
    49    17    53 1   
    50    18    30 1   
    51    18    54 1   
    52    18    55 1   
    53    19    20 ar  
    54    19    24 1   
    55    20    56 1   
    56    21    22 2   
    57    21    57 1   
    58    22    24 1   
    59    23    58 1   
    60    23    59 1   
    61    23    60 1   
    62    24    67 1   
    63    26    27 1   
    64    28    68 1   
    65    29    68 2   
    66    30    31 1   
    67    30    61 1   
    68    30    62 1   
    69    31    32 1   
    70    31    63 1   
    71    31    64 1   
    72    32    65 1   
    73    32    66 1   
@<TRIPOS>SUBSTRUCTURE
     1 NZX         1 TEMP              0 ****  ****    0 ROOT
