@<TRIPOS>MOLECULE
NZX
   68    73     1     0     0
SMALL
No Charge or Current Charge


@<TRIPOS>ATOM
      1 C1         -22.3760    -6.3070    -6.0550 ca         1 NZX      -0.071000
      2 C2         -20.9890    -6.0130    -6.1550 ca         1 NZX      -0.109300
      3 C3         -20.5670    -7.7480    -4.5360 ca         1 NZX      -0.220900
      4 C11        -20.0490    -6.7440    -5.3690 ca         1 NZX       0.082000
      5 C12        -17.9760    -5.2800    -5.2120 cc         1 NZX      -0.102300
      6 C15        -17.5840    -7.4000    -5.8000 cd         1 NZX       0.285300
      7 C16        -18.5320    -3.9500    -4.7690 c3         1 NZX      -0.035800
      8 C17        -17.8270    -8.8280    -6.2740 c6         1 NZX      -0.093000
      9 C18        -15.5260    -4.5950    -5.3430 cy         1 NZX       0.078300
     10 C19        -15.0060    -4.1520    -3.8900 cy         1 NZX      -0.078900
     11 C20        -13.6720    -4.0850    -4.6310 cy         1 NZX      -0.117000
     12 C21        -14.0350    -4.9840    -5.8090 cy         1 NZX      -0.078900
     13 C22        -13.2160    -2.6710    -4.9990 cy         1 NZX       0.120500
     14 C24        -12.4400    -4.4730    -3.8230 cy         1 NZX       0.120500
     15 C27         -9.7240    -2.4000    -4.3080 c3         1 NZX      -0.151400
     16 C28         -8.8220    -3.3900    -3.5370 c3         1 NZX      -0.083100
     17 C29        -17.6300    -8.9400    -7.8120 c6         1 NZX      -0.066900
     18 C30        -17.8900   -10.3850    -8.3080 c6         1 NZX      -0.073900
     19 C4         -21.8940    -8.0180    -4.4470 ca         1 NZX      -0.034200
     20 C5         -22.8450    -7.3170    -5.1900 ca         1 NZX      -0.133000
     21 C6         -19.9330    -8.6230    -3.5800 cc         1 NZX       0.361800
     22 N7         -20.8250    -9.4060    -2.9480 nd         1 NZX      -0.519100
     23 C8         -20.5550    -4.9630    -7.1750 c3         1 NZX      -0.039800
     24 N9         -22.0480    -9.0170    -3.5110 na         1 NZX      -0.079400
     25 C10        -18.5960    -6.4900    -5.3910 cd         1 NZX      -0.165000
     26 N13        -16.6270    -5.5490    -5.4450 na         1 NZX       0.123800
     27 N14        -16.3840    -6.8510    -5.8210 nc         1 NZX      -0.526800
     28 N23        -12.0850    -2.9850    -4.0010 nj         1 NZX      -0.431800
     29 O26        -10.8310    -3.6560    -5.9710 o          1 NZX      -0.617100
     30 C31        -16.9960   -11.4050    -7.5600 c6         1 NZX      -0.075400
     31 C32        -17.1790   -11.2940    -6.0260 c6         1 NZX      -0.073900
     32 C33        -16.9150    -9.8490    -5.5340 c6         1 NZX      -0.066900
     33 H1         -23.0910    -5.7530    -6.6580 ha         1 NZX       0.111000
     34 H2         -17.9700    -3.5530    -3.9160 hc         1 NZX       0.054367
     35 H3         -18.4790    -3.2140    -5.5800 hc         1 NZX       0.054367
     36 H4         -19.5780    -4.0390    -4.4560 hc         1 NZX       0.054367
     37 H5         -18.8660    -9.1070    -6.0690 hc         1 NZX       0.061700
     38 H6         -15.8810    -3.7250    -5.9080 h1         1 NZX       0.071700
     39 H7         -15.4110    -3.2160    -3.4900 hc         1 NZX       0.073700
     40 H8         -15.0780    -4.9380    -3.1300 hc         1 NZX       0.073700
     41 H9         -13.7690    -6.0390    -5.6770 hc         1 NZX       0.073700
     42 H10        -13.7360    -4.6520    -6.8090 hc         1 NZX       0.073700
     43 H11        -12.9330    -2.5130    -6.0470 h1         1 NZX       0.059200
     44 H12        -13.8710    -1.8650    -4.6520 h1         1 NZX       0.059200
     45 H13        -12.6360    -4.7390    -2.7780 h1         1 NZX       0.059200
     46 H14        -11.7730    -5.2060    -4.2950 h1         1 NZX       0.059200
     47 H15         -9.1410    -1.9540    -5.1220 hc         1 NZX       0.058700
     48 H16        -10.0370    -1.6280    -3.5950 hc         1 NZX       0.058700
     49 H17         -7.9460    -2.8730    -3.1280 hc         1 NZX       0.041700
     50 H18         -9.3710    -3.8470    -2.7050 hc         1 NZX       0.041700
     51 H19         -8.4700    -4.1910    -4.1990 hc         1 NZX       0.041700
     52 H20        -16.6100    -8.6370    -8.0840 hc         1 NZX       0.044200
     53 H21        -18.3100    -8.2460    -8.3250 hc         1 NZX       0.044200
     54 H22        -18.9480   -10.6420    -8.1600 hc         1 NZX       0.038700
     55 H23        -17.7020   -10.4470    -9.3890 hc         1 NZX       0.038700
     56 H24        -23.9070    -7.5380    -5.1060 ha         1 NZX       0.120000
     57 H25        -18.8940    -8.7250    -3.2970 h4         1 NZX       0.052800
     58 H27        -20.6210    -3.9530    -6.7550 hc         1 NZX       0.040700
     59 H28        -19.5290    -5.1230    -7.5260 hc         1 NZX       0.040700
     60 H29        -21.1980    -4.9890    -8.0620 hc         1 NZX       0.040700
     61 H30        -17.2360   -12.4250    -7.8920 hc         1 NZX       0.037200
     62 H31        -15.9420   -11.2330    -7.8200 hc         1 NZX       0.037200
     63 H32        -18.1990   -11.5980    -5.7510 hc         1 NZX       0.038700
     64 H33        -16.4990   -11.9910    -5.5180 hc         1 NZX       0.038700
     65 H34        -15.8570    -9.5990    -5.6970 hc         1 NZX       0.044200
     66 H35        -17.0840    -9.7920    -4.4510 hc         1 NZX       0.044200
     67 H26        -22.9290    -9.4440    -3.2250 hn         1 NZX       0.375000
     68 C25        -10.9620    -3.1010    -4.8820 c          1 NZX       0.611100
@<TRIPOS>BOND
     1     1     2 ar  
     2     1    20 ar  
     3     1    33 1   
     4     2     4 ar  
     5     2    23 1   
     6     3     4 ar  
     7     3    19 ar  
     8     3    21 1   
     9     4    25 1   
    10     5     7 1   
    11     5    25 2   
    12     5    26 1   
    13     6     8 1   
    14     6    25 1   
    15     6    27 2   
    16     7    34 1   
    17     7    35 1   
    18     7    36 1   
    19     8    17 1   
    20     8    32 1   
    21     8    37 1   
    22     9    10 1   
    23     9    12 1   
    24     9    26 1   
    25     9    38 1   
    26    10    11 1   
    27    10    39 1   
    28    10    40 1   
    29    11    12 1   
    30    11    13 1   
    31    11    14 1   
    32    12    41 1   
    33    12    42 1   
    34    13    28 1   
    35    13    43 1   
    36    13    44 1   
    37    14    28 1   
    38    14    45 1   
    39    14    46 1   
    40    15    16 1   
    41    15    47 1   
    42    15    48 1   
    43    15    68 1   
    44    16    49 1   
    45    16    50 1   
    46    16    51 1   
    47    17    18 1   
    48    17    52 1   
    49    17    53 1   
    50    18    30 1   
    51    18    54 1   
    52    18    55 1   
    53    19    20 ar  
    54    19    24 1   
    55    20    56 1   
    56    21    22 2   
    57    21    57 1   
    58    22    24 1   
    59    23    58 1   
    60    23    59 1   
    61    23    60 1   
    62    24    67 1   
    63    26    27 1   
    64    28    68 1   
    65    29    68 2   
    66    30    31 1   
    67    30    61 1   
    68    30    62 1   
    69    31    32 1   
    70    31    63 1   
    71    31    64 1   
    72    32    65 1   
    73    32    66 1   
@<TRIPOS>SUBSTRUCTURE
     1 NZX         1 TEMP              0 ****  ****    0 ROOT
