@<TRIPOS>MOLECULE
NZY
   50    51     1     0     0
SMALL
No Charge or Current Charge


@<TRIPOS>ATOM
      1 C13         39.9450   -71.6210   -62.0200 c3         1 NZY       0.121600
      2 C23         39.2980   -73.0460   -62.0510 c5         1 NZY       0.419000
      3 C33         37.8190   -73.1250   -62.6310 c5         1 NZY       0.087300
      4 C43         38.1190   -73.4610   -64.1130 c5         1 NZY       0.110300
      5 C53         39.2000   -74.5430   -63.8540 c5         1 NZY       0.171300
      6 C63         39.9510   -75.0200   -65.1240 c3         1 NZY       0.155600
      7 O23         39.3880   -73.5740   -60.7430 oh         1 NZY      -0.710000
      8 O33         36.9900   -71.9550   -62.4730 oh         1 NZY      -0.690000
      9 O43         36.9810   -73.9530   -64.8330 oh         1 NZY      -0.694000
     10 O53         40.0920   -73.8690   -62.9380 os         1 NZY      -0.461000
     11 O63         39.0170   -75.5230   -66.1030 oh         1 NZY      -0.711000
     12 C114        42.9960   -70.7980   -57.3510 c6         1 NZY       0.144600
     13 C214        44.0610   -71.9110   -57.5520 c6         1 NZY       0.049700
     14 C314        44.8320   -71.6170   -58.8750 c6         1 NZY       0.112300
     15 C414        43.8390   -71.5100   -60.0690 c6         1 NZY       0.148300
     16 C513        42.7510   -70.4380   -59.7460 c6         1 NZY       0.170300
     17 C614        41.6450   -70.3360   -60.8400 c3         1 NZY       0.174600
     18 C811        44.9830   -74.4740   -56.2120 c3         1 NZY      -0.182100
     19 O313        45.8260   -72.6210   -59.1480 oh         1 NZY      -0.661000
     20 O413        44.5750   -71.1980   -61.2680 oh         1 NZY      -0.720000
     21 O513        42.1010   -70.7490   -58.4850 os         1 NZY      -0.430000
     22 O613        40.9790   -71.6070   -61.0020 os         1 NZY      -0.449000
     23 O711        46.4550   -72.9890   -55.0240 o          1 NZY      -0.599100
     24 H1          40.3590   -71.3840   -63.0090 h1         1 NZY       0.044700
     25 H2          39.1790   -70.8710   -61.7850 h1         1 NZY       0.044700
     26 H3          37.3100   -73.9810   -62.1650 h1         1 NZY       0.071700
     27 H4          38.5580   -72.5990   -64.6370 h1         1 NZY       0.049700
     28 H5          38.7730   -75.4220   -63.3500 h1         1 NZY       0.086700
     29 H6          40.5190   -74.1780   -65.5400 h1         1 NZY       0.029200
     30 H7          40.6660   -75.8030   -64.8380 h1         1 NZY       0.029200
     31 H8          40.1340   -73.0320   -60.3830 ho         1 NZY       0.542000
     32 H9          36.2310   -72.0740   -63.0920 ho         1 NZY       0.505000
     33 H10         37.3630   -74.5660   -65.5150 ho         1 NZY       0.507000
     34 H11         39.5520   -75.9000   -66.8420 ho         1 NZY       0.506000
     35 H12         43.4790   -69.8170   -57.2250 h1         1 NZY       0.055700
     36 H13         42.4070   -71.0060   -56.4470 h1         1 NZY       0.055700
     37 H14         43.5220   -72.8620   -57.6600 h1         1 NZY       0.088700
     38 H15         45.3290   -70.6400   -58.7620 h1         1 NZY       0.041700
     39 H16         43.3370   -72.4830   -60.1820 h1         1 NZY       0.074700
     40 H17         43.2290   -69.4520   -59.6560 h1         1 NZY       0.048700
     41 H18         42.1100   -70.0220   -61.7830 h1         1 NZY       0.042700
     42 H19         40.9290   -69.5590   -60.5430 h1         1 NZY       0.042700
     43 H20         45.4740   -75.2930   -55.6750 hc         1 NZY       0.065367
     44 H21         43.9020   -74.4740   -56.0380 hc         1 NZY       0.065367
     45 H22         45.0520   -74.6120   -57.2970 hc         1 NZY       0.065367
     46 H24         46.5020   -72.5500   -58.4380 ho         1 NZY       0.457000
     47 H25         45.4010   -71.7350   -61.1920 ho         1 NZY       0.526000
     48 N211        44.9750   -71.9820   -56.3850 ns         1 NZY      -0.521900
     49 C711        45.5500   -73.1070   -55.8330 c          1 NZY       0.607100
     50 H23         45.3490   -71.1080   -56.0310 hn         1 NZY       0.309500
@<TRIPOS>BOND
     1     1     2 1   
     2     1    22 1   
     3     1    24 1   
     4     1    25 1   
     5     2     3 1   
     6     2     7 1   
     7     2    10 1   
     8     3     4 1   
     9     3     8 1   
    10     3    26 1   
    11     4     5 1   
    12     4     9 1   
    13     4    27 1   
    14     5     6 1   
    15     5    10 1   
    16     5    28 1   
    17     6    11 1   
    18     6    29 1   
    19     6    30 1   
    20     7    31 1   
    21     8    32 1   
    22     9    33 1   
    23    11    34 1   
    24    12    13 1   
    25    12    21 1   
    26    12    35 1   
    27    12    36 1   
    28    13    14 1   
    29    13    37 1   
    30    13    48 1   
    31    14    15 1   
    32    14    19 1   
    33    14    38 1   
    34    15    16 1   
    35    15    20 1   
    36    15    39 1   
    37    16    17 1   
    38    16    21 1   
    39    16    40 1   
    40    17    22 1   
    41    17    41 1   
    42    17    42 1   
    43    18    43 1   
    44    18    44 1   
    45    18    45 1   
    46    18    49 1   
    47    19    46 1   
    48    20    47 1   
    49    23    49 2   
    50    48    49 1   
    51    48    50 1   
@<TRIPOS>SUBSTRUCTURE
     1 NZY         1 TEMP              0 ****  ****    0 ROOT
