@<TRIPOS>MOLECULE
NZY
   50    51     1     0     0
SMALL
bcc


@<TRIPOS>ATOM
      1 C13         40.9380   -72.2130   -62.8370 c3         1 NZY       0.098400
      2 C23         40.7230   -73.7170   -63.0470 c5         1 NZY       0.372600
      3 C33         39.5420   -74.3210   -62.2780 c5         1 NZY       0.064100
      4 C43         38.3630   -74.0810   -63.2140 c5         1 NZY       0.087100
      5 C53         39.0210   -74.2750   -64.5770 c5         1 NZY       0.148100
      6 C63         38.4490   -73.4250   -65.6970 c3         1 NZY       0.132400
      7 O23         41.9120   -74.4000   -62.8170 oh         1 NZY      -0.587800
      8 O33         39.4280   -73.7600   -61.0020 oh         1 NZY      -0.567800
      9 O43         37.2960   -74.9750   -63.0380 oh         1 NZY      -0.571800
     10 O53         40.3840   -73.9100   -64.4020 os         1 NZY      -0.414600
     11 O63         37.1070   -73.7990   -65.8900 oh         1 NZY      -0.588800
     12 C114        43.0190   -70.2210   -58.0620 c6         1 NZY       0.121400
     13 C214        43.6790   -71.5040   -57.5600 c6         1 NZY       0.049700
     14 C314        44.6370   -72.0360   -58.6300 c6         1 NZY       0.089100
     15 C414        43.8790   -72.1930   -59.9420 c6         1 NZY       0.125100
     16 C513        43.2400   -70.8520   -60.3130 c6         1 NZY       0.147100
     17 C614        42.4750   -70.8940   -61.6190 c3         1 NZY       0.151400
     18 C811        43.2780   -73.1390   -55.1580 c3         1 NZY      -0.182100
     19 O313        45.1690   -73.2910   -58.2800 oh         1 NZY      -0.598800
     20 O413        44.7190   -72.5830   -60.9990 oh         1 NZY      -0.597800
     21 O513        42.3630   -70.4440   -59.2850 os         1 NZY      -0.383600
     22 O613        41.6170   -72.0080   -61.6260 os         1 NZY      -0.402600
     23 O711        44.9480   -71.7260   -54.1940 o          1 NZY      -0.599100
     24 H1          41.5350   -71.8520   -63.6850 h1         1 NZY       0.044700
     25 H2          39.9860   -71.6680   -62.8610 h1         1 NZY       0.044700
     26 H3          39.7090   -75.4080   -62.2240 h1         1 NZY       0.071700
     27 H4          38.0240   -73.0400   -63.1050 h1         1 NZY       0.049700
     28 H5          38.9570   -75.3360   -64.8570 h1         1 NZY       0.086700
     29 H6          38.5450   -72.3660   -65.4220 h1         1 NZY       0.029200
     30 H7          39.0490   -73.5790   -66.6040 h1         1 NZY       0.029200
     31 H8          42.4750   -73.8540   -62.2520 ho         1 NZY       0.443000
     32 H9          38.7450   -74.2380   -60.5210 ho         1 NZY       0.406000
     33 H10         36.6820   -74.6000   -62.4010 ho         1 NZY       0.408000
     34 H11         36.7570   -73.2870   -66.6240 ho         1 NZY       0.407000
     35 H12         43.7780   -69.4300   -58.1660 h1         1 NZY       0.055700
     36 H13         42.2720   -69.8750   -57.3460 h1         1 NZY       0.055700
     37 H14         42.8970   -72.2480   -57.4010 h1         1 NZY       0.088700
     38 H15         45.4400   -71.2980   -58.7770 h1         1 NZY       0.041700
     39 H16         43.0770   -72.9290   -59.7820 h1         1 NZY       0.074700
     40 H17         44.0400   -70.1030   -60.4410 h1         1 NZY       0.048700
     41 H18         43.1860   -70.9440   -62.4510 h1         1 NZY       0.042700
     42 H19         41.9140   -69.9560   -61.7320 h1         1 NZY       0.042700
     43 H20         43.3020   -73.6250   -54.1860 hc         1 NZY       0.065367
     44 H21         42.2600   -72.7920   -55.3450 hc         1 NZY       0.065367
     45 H22         43.5150   -73.8780   -55.9240 hc         1 NZY       0.065367
     46 H24         45.8900   -73.1600   -57.6570 ho         1 NZY       0.418000
     47 H25         45.1400   -73.4130   -60.7540 ho         1 NZY       0.427000
     48 N211        44.3580   -71.2730   -56.3090 ns         1 NZY      -0.588900
     49 C711        44.2640   -71.9970   -55.1700 c          1 NZY       0.674100
     50 H23         45.0480   -70.5340   -56.2950 hn         1 NZY       0.309500
@<TRIPOS>BOND
     1     1     2 1   
     2     1    22 1   
     3     1    24 1   
     4     1    25 1   
     5     2     3 1   
     6     2     7 1   
     7     2    10 1   
     8     3     4 1   
     9     3     8 1   
    10     3    26 1   
    11     4     5 1   
    12     4     9 1   
    13     4    27 1   
    14     5     6 1   
    15     5    10 1   
    16     5    28 1   
    17     6    11 1   
    18     6    29 1   
    19     6    30 1   
    20     7    31 1   
    21     8    32 1   
    22     9    33 1   
    23    11    34 1   
    24    12    13 1   
    25    12    21 1   
    26    12    35 1   
    27    12    36 1   
    28    13    14 1   
    29    13    37 1   
    30    13    48 1   
    31    14    15 1   
    32    14    19 1   
    33    14    38 1   
    34    15    16 1   
    35    15    20 1   
    36    15    39 1   
    37    16    17 1   
    38    16    21 1   
    39    16    40 1   
    40    17    22 1   
    41    17    41 1   
    42    17    42 1   
    43    18    43 1   
    44    18    44 1   
    45    18    45 1   
    46    18    49 1   
    47    19    46 1   
    48    20    47 1   
    49    23    49 2   
    50    48    49 1   
    51    48    50 1   
@<TRIPOS>SUBSTRUCTURE
     1 NZY         1 TEMP              0 ****  ****    0 ROOT
