@<TRIPOS>MOLECULE
NZZ
   29    28     1     0     0
SMALL
No Charge or Current Charge


@<TRIPOS>ATOM
      1 CAA          8.3980    51.3370    33.0720 c3         1 NZZ      -0.055900
      2 CAB          7.5470    50.1160    33.3690 c2         1 NZZ      -0.113400
      3 CAE          6.4340    50.4160    34.3620 c3         1 NZZ      -0.055900
      4 CAC          7.7830    48.9170    32.8010 c2         1 NZZ      -0.223200
      5 CAF          6.9940    47.6340    32.9940 c3         1 NZZ      -0.037200
      6 CAG          7.4930    46.8190    34.2050 c3         1 NZZ      -0.040200
      7 CAH          6.7260    45.5160    34.4000 c2         1 NZZ      -0.100400
      8 CAD          5.4030    45.7000    35.1250 c3         1 NZZ      -0.055900
      9 CAI          7.1640    44.3100    33.9920 c2         1 NZZ      -0.222200
     10 CAJ          8.4590    44.0230    33.2660 c3         1 NZZ       0.198800
     11 OAK          8.4810    42.6590    32.8430 oh         1 NZZ      -0.658000
     12 H1           9.1970    51.1120    32.3550 hc         1 NZZ       0.038200
     13 H2           7.7930    52.1460    32.6470 hc         1 NZZ       0.038200
     14 H3           8.8750    51.7170    33.9840 hc         1 NZZ       0.038200
     15 H4           5.8480    49.5300    34.6280 hc         1 NZZ       0.038200
     16 H5           6.8420    50.8200    35.2960 hc         1 NZZ       0.038200
     17 H6           5.7370    51.1590    33.9570 hc         1 NZZ       0.038200
     18 H7           8.6140    48.8080    32.1020 ha         1 NZZ       0.165000
     19 H8           5.9270    47.8530    33.1130 hc         1 NZZ       0.048700
     20 H9           7.0700    47.0160    32.0910 hc         1 NZZ       0.048700
     21 H10          8.5610    46.6180    34.0610 hc         1 NZZ       0.044700
     22 H11          7.4320    47.4360    35.1110 hc         1 NZZ       0.044700
     23 H12          4.7260    46.3550    34.5650 hc         1 NZZ       0.040367
     24 H13          4.8840    44.7450    35.2710 hc         1 NZZ       0.040367
     25 H14          5.5540    46.1440    36.1170 hc         1 NZZ       0.040367
     26 H15          6.5570    43.4230    34.1780 ha         1 NZZ       0.178000
     27 H16          9.3060    44.2260    33.9360 h1         1 NZZ       0.021700
     28 H17          8.5490    44.6900    32.3980 h1         1 NZZ       0.021700
     29 H18          9.3360    42.5220    32.3780 ho         1 NZZ       0.439000
@<TRIPOS>BOND
     1     1     2 1   
     2     1    12 1   
     3     1    13 1   
     4     1    14 1   
     5     2     3 1   
     6     2     4 2   
     7     3    15 1   
     8     3    16 1   
     9     3    17 1   
    10     4     5 1   
    11     4    18 1   
    12     5     6 1   
    13     5    19 1   
    14     5    20 1   
    15     6     7 1   
    16     6    21 1   
    17     6    22 1   
    18     7     8 1   
    19     7     9 2   
    20     8    23 1   
    21     8    24 1   
    22     8    25 1   
    23     9    10 1   
    24     9    26 1   
    25    10    11 1   
    26    10    27 1   
    27    10    28 1   
    28    11    29 1   
@<TRIPOS>SUBSTRUCTURE
     1 NZZ         1 TEMP              0 ****  ****    0 ROOT
