@<TRIPOS>MOLECULE
NZZ
   29    28     1     0     0
SMALL
bcc


@<TRIPOS>ATOM
      1 CAA          8.3700    51.2650    33.0290 c3         1 NZZ      -0.055900
      2 CAB          7.5100    50.0640    33.2990 c2         1 NZZ      -0.113400
      3 CAE          6.2540    50.3510    34.0670 c3         1 NZZ      -0.055900
      4 CAC          7.8690    48.8490    32.8780 c2         1 NZZ      -0.173200
      5 CAF          7.1200    47.5670    33.0880 c3         1 NZZ      -0.037200
      6 CAG          7.5920    46.8170    34.3460 c3         1 NZZ      -0.040200
      7 CAH          6.8180    45.5410    34.5560 c2         1 NZZ      -0.100400
      8 CAD          5.5260    45.7060    35.3010 c3         1 NZZ      -0.055900
      9 CAI          7.1990    44.3490    34.0930 c2         1 NZZ      -0.172200
     10 CAJ          8.4480    44.0350    33.3350 c3         1 NZZ       0.175600
     11 OAK          8.0850    43.3920    32.1260 oh         1 NZZ      -0.595800
     12 H1           9.2550    51.0110    32.4460 hc         1 NZZ       0.038200
     13 H2           7.8120    52.0300    32.4830 hc         1 NZZ       0.038200
     14 H3           8.6990    51.7300    33.9620 hc         1 NZZ       0.038200
     15 H4           5.6840    49.4560    34.3120 hc         1 NZZ       0.038200
     16 H5           6.4890    50.8590    35.0050 hc         1 NZZ       0.038200
     17 H6           5.6000    51.0250    33.5070 hc         1 NZZ       0.038200
     18 H7           8.8150    48.7570    32.3510 ha         1 NZZ       0.115000
     19 H8           6.0440    47.7440    33.1540 hc         1 NZZ       0.048700
     20 H9           7.2670    46.9150    32.2230 hc         1 NZZ       0.048700
     21 H10          8.6650    46.6340    34.2730 hc         1 NZZ       0.044700
     22 H11          7.4560    47.4700    35.2130 hc         1 NZZ       0.044700
     23 H12          4.8980    46.4700    34.8340 hc         1 NZZ       0.040367
     24 H13          4.9520    44.7800    35.3420 hc         1 NZZ       0.040367
     25 H14          5.7070    46.0400    36.3250 hc         1 NZZ       0.040367
     26 H15          6.5540    43.4940    34.2830 ha         1 NZZ       0.128000
     27 H16          9.0830    43.3800    33.9470 h1         1 NZZ       0.021700
     28 H17          9.0280    44.9430    33.1410 h1         1 NZZ       0.021700
     29 H18          8.8920    43.0930    31.6980 ho         1 NZZ       0.400000
@<TRIPOS>BOND
     1     1     2 1   
     2     1    12 1   
     3     1    13 1   
     4     1    14 1   
     5     2     3 1   
     6     2     4 2   
     7     3    15 1   
     8     3    16 1   
     9     3    17 1   
    10     4     5 1   
    11     4    18 1   
    12     5     6 1   
    13     5    19 1   
    14     5    20 1   
    15     6     7 1   
    16     6    21 1   
    17     6    22 1   
    18     7     8 1   
    19     7     9 2   
    20     8    23 1   
    21     8    24 1   
    22     8    25 1   
    23     9    10 1   
    24     9    26 1   
    25    10    11 1   
    26    10    27 1   
    27    10    28 1   
    28    11    29 1   
@<TRIPOS>SUBSTRUCTURE
     1 NZZ         1 TEMP              0 ****  ****    0 ROOT
