@<TRIPOS>MOLECULE
501
   45    47     1     0     0
SMALL
No Charge or Current Charge


@<TRIPOS>ATOM
      1 C1          -5.0310     2.1420     0.4790 ca         1 501      -0.073000
      2 C2          -3.6280     2.2060     0.3450 ca         1 501      -0.142300
      3 C3          -2.9420     1.1520    -0.3040 ca         1 501       0.336000
      4 C4          -3.6660     0.0660    -0.8240 ca         1 501      -0.139000
      5 C5          -5.0590     0.0120    -0.6850 ca         1 501       0.151000
      6 C6          -5.7430     1.0460    -0.0330 ca         1 501      -0.138000
      7 N10         -1.5580     1.2130    -0.4580 nu         1 501      -0.889200
      8 C11         -0.5730     0.3270    -0.2500 cc         1 501       0.794200
      9 N12         -0.8590    -0.9770     0.0200 nc         1 501      -0.445300
     10 C13          0.3430    -1.4660     0.1600 cd         1 501       0.489500
     11 N14          1.2480    -0.4560    -0.0240 na         1 501       0.040900
     12 N15          0.6670     0.7590    -0.2980 nd         1 501      -0.714100
     13 N16          0.5620    -2.7950     0.4490 nd         1 501      -0.703000
     14 C17          1.8720    -3.0170     0.5400 cc         1 501       0.458300
     15 C18          2.9050    -2.0290     0.3650 cc         1 501      -0.346000
     16 C19          2.6130    -0.7150     0.0770 cd         1 501       0.421000
     17 N21          3.5380     0.2790    -0.1020 nu         1 501      -0.954200
     18 C22          4.9990     0.1650    -0.0280 c3         1 501       0.228800
     19 C23          5.6580     1.5320    -0.2920 c3         1 501      -0.096400
     20 C26          7.2010     1.4790    -0.2280 c3         1 501      -0.072400
     21 C29          7.8640     2.8450    -0.4920 c3         1 501      -0.090100
     22 C37          2.3270    -4.4130     0.8500 c3         1 501      -0.151400
     23 Cl41        -5.9520    -1.3550    -1.3380 cl         1 501      -0.206000
     24 C42         -2.8820     3.4130     0.9150 c3         1 501      -0.047800
     25 H1          -5.5720     2.9430     0.9800 ha         1 501       0.112000
     26 H4          -3.1530    -0.7330    -1.3470 ha         1 501       0.175000
     27 H6          -6.8240     1.0000     0.0720 ha         1 501       0.130000
     28 H10         -1.1600     2.1420    -0.4160 hn         1 501       0.510000
     29 H18          3.9340    -2.3490     0.4670 ha         1 501       0.137000
     30 H21          3.1190     1.1900    -0.3090 hn         1 501       0.527000
     31 H221         5.3580    -0.5610    -0.7710 h1         1 501       0.050200
     32 H222         5.2980    -0.1950     0.9670 h1         1 501       0.050200
     33 H231         5.2930     2.2570     0.4450 hc         1 501       0.051700
     34 H232         5.3530     1.8940    -1.2820 hc         1 501       0.051700
     35 H261         7.5710     0.7540    -0.9640 hc         1 501       0.041700
     36 H262         7.5120     1.1170     0.7610 hc         1 501       0.041700
     37 H291         7.6010     3.2170    -1.4900 hc         1 501       0.036700
     38 H292         7.5410     3.5840     0.2510 hc         1 501       0.036700
     39 H293         8.9560     2.7570    -0.4360 hc         1 501       0.036700
     40 H371         2.9050    -4.4320     1.7810 hc         1 501       0.059033
     41 H372         1.4800    -5.1010     0.9670 hc         1 501       0.059033
     42 H373         2.9640    -4.7980     0.0460 hc         1 501       0.059033
     43 H421        -2.1040     3.1000     1.6210 hc         1 501       0.041367
     44 H422        -2.4050     3.9950     0.1180 hc         1 501       0.041367
     45 H423        -3.5550     4.0900     1.4540 hc         1 501       0.041367
@<TRIPOS>BOND
     1     1     2 ar  
     2     1     6 ar  
     3     1    25 1   
     4     2     3 ar  
     5     2    24 1   
     6     3     4 ar  
     7     3     7 1   
     8     4     5 ar  
     9     4    26 1   
    10     5     6 ar  
    11     5    23 1   
    12     6    27 1   
    13     7     8 1   
    14     7    28 1   
    15     8     9 1   
    16     8    12 2   
    17     9    10 2   
    18    10    11 1   
    19    10    13 1   
    20    11    12 1   
    21    11    16 1   
    22    13    14 2   
    23    14    15 1   
    24    14    22 1   
    25    15    16 2   
    26    15    29 1   
    27    16    17 1   
    28    17    18 1   
    29    17    30 1   
    30    18    19 1   
    31    18    31 1   
    32    18    32 1   
    33    19    20 1   
    34    19    33 1   
    35    19    34 1   
    36    20    21 1   
    37    20    35 1   
    38    20    36 1   
    39    21    37 1   
    40    21    38 1   
    41    21    39 1   
    42    22    40 1   
    43    22    41 1   
    44    22    42 1   
    45    24    43 1   
    46    24    44 1   
    47    24    45 1   
@<TRIPOS>SUBSTRUCTURE
     1 501         1 TEMP              0 ****  ****    0 ROOT
