@<TRIPOS>MOLECULE
501
   45    47     1     0     0
SMALL
bcc


@<TRIPOS>ATOM
      1 C1          -5.0100     2.3090     0.1270 ca         1 501      -0.091000
      2 C2          -3.6260     2.3770     0.0760 ca         1 501      -0.142300
      3 C3          -2.8940     1.1710     0.0620 ca         1 501       0.197600
      4 C4          -3.5690    -0.0510     0.1000 ca         1 501      -0.157000
      5 C5          -4.9530    -0.0590     0.1530 ca         1 501       0.059400
      6 C6          -5.6980     1.1040     0.1670 ca         1 501      -0.156000
      7 N10         -1.5130     1.2660     0.0080 nu         1 501      -0.695600
      8 C11         -0.5640     0.2900     0.0340 cc         1 501       0.794200
      9 N12         -0.8130    -1.0280     0.0950 nc         1 501      -0.445300
     10 C13          0.3980    -1.5720     0.1020 cd         1 501       0.489500
     11 N14          1.3200    -0.5610     0.0430 na         1 501      -0.009800
     12 N15          0.7130     0.6420    -0.0030 nd         1 501      -0.714100
     13 N16          0.7350    -2.8500     0.1560 nd         1 501      -0.703000
     14 C17          2.0410    -3.1080     0.1570 cc         1 501       0.523600
     15 C18          3.0260    -2.1220     0.1050 cc         1 501      -0.429300
     16 C19          2.6550    -0.7790     0.0430 cd         1 501       0.333300
     17 N21          3.4650     0.2700    -0.0190 nu         1 501      -0.760600
     18 C22          4.9100     0.1640     0.0400 c3         1 501       0.228800
     19 C23          5.5500     1.5280    -0.1490 c3         1 501      -0.096400
     20 C26          7.0680     1.4620    -0.0480 c3         1 501      -0.072400
     21 C29          7.7240     2.8200    -0.2540 c3         1 501      -0.090100
     22 C37          2.4350    -4.5500     0.2280 c3         1 501      -0.151400
     23 CL41        -5.7670    -1.5930     0.2030 cl         1 501      -0.114400
     24 C42         -2.9320     3.7070     0.0350 c3         1 501      -0.047800
     25 H1          -5.5750     3.2330     0.1390 ha         1 501       0.130000
     26 H4          -3.0150    -0.9760     0.0900 ha         1 501       0.193000
     27 H6          -6.7770     1.0820     0.2080 ha         1 501       0.148000
     28 H10         -1.1300     2.1970    -0.0440 hn         1 501       0.454800
     29 H18          4.0710    -2.3930     0.1180 ha         1 501       0.155000
     30 H21          3.0460     1.1880     0.0020 hn         1 501       0.471800
     31 H221         5.2580    -0.5170    -0.7410 h1         1 501       0.050200
     32 H222         5.2130    -0.2640     1.0020 h1         1 501       0.050200
     33 H231         5.1630     2.2200     0.6070 hc         1 501       0.051700
     34 H232         5.2620     1.9320    -1.1240 hc         1 501       0.051700
     35 H261         7.4510     0.7530    -0.7880 hc         1 501       0.041700
     36 H262         7.3480     1.0620     0.9310 hc         1 501       0.041700
     37 H291         7.4950     3.2240    -1.2420 hc         1 501       0.036700
     38 H292         7.3750     3.5420     0.4860 hc         1 501       0.036700
     39 H293         8.8090     2.7530    -0.1670 hc         1 501       0.036700
     40 H371         2.1030    -4.9860     1.1720 hc         1 501       0.059033
     41 H372         1.9570    -5.1140    -0.5730 hc         1 501       0.059033
     42 H373         3.5120    -4.6820     0.1510 hc         1 501       0.059033
     43 H421        -2.2460     3.8380     0.8760 hc         1 501       0.041367
     44 H422        -2.3520     3.8370    -0.8830 hc         1 501       0.041367
     45 H423        -3.6540     4.5190     0.0770 hc         1 501       0.041367
@<TRIPOS>BOND
     1     1     2 ar  
     2     1     6 ar  
     3     1    25 1   
     4     2     3 ar  
     5     2    24 1   
     6     3     4 ar  
     7     3     7 1   
     8     4     5 ar  
     9     4    26 1   
    10     5     6 ar  
    11     5    23 1   
    12     6    27 1   
    13     7     8 1   
    14     7    28 1   
    15     8     9 1   
    16     8    12 2   
    17     9    10 2   
    18    10    11 1   
    19    10    13 1   
    20    11    12 1   
    21    11    16 1   
    22    13    14 2   
    23    14    15 1   
    24    14    22 1   
    25    15    16 2   
    26    15    29 1   
    27    16    17 1   
    28    17    18 1   
    29    17    30 1   
    30    18    19 1   
    31    18    31 1   
    32    18    32 1   
    33    19    20 1   
    34    19    33 1   
    35    19    34 1   
    36    20    21 1   
    37    20    35 1   
    38    20    36 1   
    39    21    37 1   
    40    21    38 1   
    41    21    39 1   
    42    22    40 1   
    43    22    41 1   
    44    22    42 1   
    45    24    43 1   
    46    24    44 1   
    47    24    45 1   
@<TRIPOS>SUBSTRUCTURE
     1 501         1 TEMP              0 ****  ****    0 ROOT
