@<TRIPOS>MOLECULE
502
   34    34     1     0     0
SMALL
No Charge or Current Charge


@<TRIPOS>ATOM
      1 C1           1.7380    -0.4580     1.5330 c3         1 502       0.158300
      2 C2           2.8900    -0.4240     0.5380 ca         1 502      -0.024300
      3 C6           4.0200    -1.2350    -1.4540 ca         1 502       0.383900
      4 C7           2.9400    -1.3070    -0.5560 ca         1 502      -0.211000
      5 C3           3.9430     0.4970     0.6670 ca         1 502      -0.221000
      6 C4           4.9670     0.4760    -0.2840 ca         1 502       0.595900
      7 C9          -0.4350     0.0120     0.3810 c          1 502       0.645100
      8 N5           5.0310    -0.3470    -1.3220 nb         1 502      -0.742000
      9 N8           0.6410     0.4190     1.1190 ns         1 502      -0.515900
     10 N10         -1.3060     1.0310     0.1090 ns         1 502      -0.497900
     11 O11         -0.6040    -1.1340     0.0040 o          1 502      -0.622100
     12 C12         -2.5610     0.8650    -0.6610 c3         1 502       0.049000
     13 C13         -3.7610     0.4790     0.2340 c          1 502       0.570100
     14 O14         -4.8540     0.1370    -0.5220 os         1 502      -0.449100
     15 O15         -3.7450     0.4790     1.4600 o          1 502      -0.485000
     16 C16         -6.0560    -0.2500     0.1650 c3         1 502       0.167600
     17 C17         -7.1120    -0.5780    -0.9020 c3         1 502      -0.097100
     18 N18          6.0120     1.3080    -0.2630 nv         1 502      -1.056900
     19 H1           1.3700    -1.4870     1.6420 h1         1 502       0.066700
     20 H2           2.0960    -0.1320     2.5190 h1         1 502       0.066700
     21 H3           4.0750    -1.9100    -2.3080 h4         1 502       0.015100
     22 H4           2.1540    -2.0400    -0.7160 ha         1 502       0.123000
     23 H5           3.9660     1.2090     1.4860 ha         1 502       0.115000
     24 H6           0.6870     1.3960     1.3750 hn         1 502       0.310500
     25 H7          -1.0830     1.9450     0.4820 hn         1 502       0.307500
     26 H8          -2.8110     1.8040    -1.1710 h1         1 502       0.085200
     27 H9          -2.4390     0.0850    -1.4220 h1         1 502       0.085200
     28 H10         -5.8830    -1.1350     0.7930 h1         1 502       0.049200
     29 H11         -6.4230     0.5650     0.8040 h1         1 502       0.049200
     30 H12         -7.3110     0.2980    -1.5310 hc         1 502       0.046700
     31 H13         -6.7710    -1.4000    -1.5430 hc         1 502       0.046700
     32 H14         -8.0520    -0.8810    -0.4260 hc         1 502       0.046700
     33 H15          5.9090     2.1730     0.2570 hn         1 502       0.468500
     34 H16          6.5490     1.3530    -1.1200 hn         1 502       0.468500
@<TRIPOS>BOND
     1     1     2 1   
     2     1     9 1   
     3     1    19 1   
     4     1    20 1   
     5     2     4 ar  
     6     2     5 ar  
     7     3     4 ar  
     8     3     8 ar  
     9     3    21 1   
    10     4    22 1   
    11     5     6 ar  
    12     5    23 1   
    13     6     8 ar  
    14     6    18 1   
    15     7     9 1   
    16     7    10 1   
    17     7    11 2   
    18     9    24 1   
    19    10    12 1   
    20    10    25 1   
    21    12    13 1   
    22    12    26 1   
    23    12    27 1   
    24    13    14 1   
    25    13    15 2   
    26    14    16 1   
    27    16    17 1   
    28    16    28 1   
    29    16    29 1   
    30    17    30 1   
    31    17    31 1   
    32    17    32 1   
    33    18    33 1   
    34    18    34 1   
@<TRIPOS>SUBSTRUCTURE
     1 502         1 TEMP              0 ****  ****    0 ROOT
