@<TRIPOS>MOLECULE
502
   34    34     1     0     0
SMALL
bcc


@<TRIPOS>ATOM
      1 C1           1.5770    -0.8210     1.7060 c3         1 502       0.158300
      2 C2           2.6390    -0.7430     0.6370 ca         1 502      -0.024300
      3 C6           4.3250    -1.7850    -0.6830 ca         1 502       0.449200
      4 C7           3.3380    -1.8980     0.2730 ca         1 502      -0.294300
      5 C3           2.9770     0.4460     0.0270 ca         1 502      -0.304300
      6 C4           4.0040     0.4570    -0.9330 ca         1 502       0.661200
      7 C9          -0.3340     0.3190     0.7270 c          1 502       0.779100
      8 N5           4.6620    -0.6460    -1.2830 nb         1 502      -0.742000
      9 N8           0.6150     0.2460     1.6950 ns         1 502      -0.582900
     10 N10         -1.0960     1.4500     0.7440 ns         1 502      -0.564900
     11 O11         -0.4840    -0.5570    -0.1150 o          1 502      -0.622100
     12 C12         -2.2660     1.5140    -0.0750 c3         1 502       0.049000
     13 C13         -3.3500     0.5470     0.3660 c          1 502       0.619100
     14 O14         -4.3160     0.4770    -0.5340 os         1 502      -0.425900
     15 O15         -3.3420    -0.0570     1.4070 o          1 502      -0.534000
     16 C16         -5.4420    -0.3710    -0.2520 c3         1 502       0.144400
     17 C17         -6.3980    -0.2780    -1.4160 c3         1 502      -0.097100
     18 N18          4.3970     1.6260    -1.5190 nv         1 502      -0.946500
     19 H1           1.0690    -1.7840     1.6390 h1         1 502       0.066700
     20 H2           2.0670    -0.8060     2.6810 h1         1 502       0.066700
     21 H3           4.8810    -2.6640    -0.9930 h4         1 502       0.015100
     22 H4           3.1080    -2.8580     0.7150 ha         1 502       0.141000
     23 H5           2.4610     1.3660     0.2730 ha         1 502       0.133000
     24 H6           0.7790     1.0360     2.2970 hn         1 502       0.310500
     25 H7          -1.0790     2.0360     1.5630 hn         1 502       0.307500
     26 H8          -2.6700     2.5270    -0.0230 h1         1 502       0.085200
     27 H9          -2.0230     1.3340    -1.1230 h1         1 502       0.085200
     28 H10         -5.0980    -1.3970    -0.1110 h1         1 502       0.049200
     29 H11         -5.9210    -0.0470     0.6740 h1         1 502       0.049200
     30 H12         -6.7600     0.7400    -1.5590 hc         1 502       0.046700
     31 H13         -5.9390    -0.6200    -2.3430 hc         1 502       0.046700
     32 H14         -7.2610    -0.9130    -1.2160 hc         1 502       0.046700
     33 H15          3.7510     2.3970    -1.5020 hn         1 502       0.413300
     34 H16          4.9130     1.5390    -2.3790 hn         1 502       0.413300
@<TRIPOS>BOND
     1     1     2 1   
     2     1     9 1   
     3     1    19 1   
     4     1    20 1   
     5     2     4 ar  
     6     2     5 ar  
     7     3     4 ar  
     8     3     8 ar  
     9     3    21 1   
    10     4    22 1   
    11     5     6 ar  
    12     5    23 1   
    13     6     8 ar  
    14     6    18 1   
    15     7     9 1   
    16     7    10 1   
    17     7    11 2   
    18     9    24 1   
    19    10    12 1   
    20    10    25 1   
    21    12    13 1   
    22    12    26 1   
    23    12    27 1   
    24    13    14 1   
    25    13    15 2   
    26    14    16 1   
    27    16    17 1   
    28    16    28 1   
    29    16    29 1   
    30    17    30 1   
    31    17    31 1   
    32    17    32 1   
    33    18    33 1   
    34    18    34 1   
@<TRIPOS>SUBSTRUCTURE
     1 502         1 TEMP              0 ****  ****    0 ROOT
