@<TRIPOS>MOLECULE
503
   62    65     1     0     0
SMALL
bcc


@<TRIPOS>ATOM
      1 O4          -6.3180     2.2030    -2.0060 o          1 503      -0.602800
      2 S           -6.6290     1.8860    -0.6220 sy         1 503       1.291200
      3 O3          -7.5130     2.7500     0.1430 o          1 503      -0.602800
      4 C16         -7.2780     0.2370    -0.5770 ca         1 503      -0.310500
      5 C21         -6.9720    -0.6470    -1.6040 ca         1 503      -0.034500
      6 C20         -7.4440    -1.9500    -1.5330 ca         1 503      -0.148000
      7 C19         -8.2120    -2.3560    -0.4500 ca         1 503      -0.075000
      8 C18         -8.5120    -1.4610     0.5700 ca         1 503      -0.148000
      9 C17         -8.0450    -0.1570     0.5130 ca         1 503      -0.034500
     10 N2          -5.2040     1.8570     0.2000 n7         1 503      -0.812100
     11 C15         -4.1360     0.9710    -0.2540 c3         1 503       0.196800
     12 C14         -2.8300     1.4100     0.3970 c3         1 503       0.166800
     13 N1          -1.7350     0.5270     0.0510 n3         1 503      -0.722600
     14 C13         -0.4520     1.1970     0.1800 c6         1 503       0.167300
     15 C12          0.6900     0.3070    -0.2850 c6         1 503      -0.072400
     16 C22         -1.7560    -0.7000     0.8300 c6         1 503       0.167300
     17 C23         -0.6640    -1.6600     0.3900 c6         1 503      -0.072400
     18 C11          0.7120    -1.0070     0.4900 c6         1 503      -0.068700
     19 C10          1.7750    -1.9680    -0.0030 c3         1 503       0.150400
     20 O2           3.0540    -1.3670     0.2060 os         1 503      -0.428900
     21 C9           4.1380    -2.0320    -0.1940 c          1 503       0.698300
     22 O1           4.0820    -3.1150    -0.7380 o          1 503      -0.552000
     23 C8           5.3510    -1.3050     0.1020 cc         1 503      -0.262400
     24 C1           6.6310    -1.7570    -0.2070 cd         1 503       0.239000
     25 O            6.9310    -2.8890    -0.8000 os         1 503      -0.261900
     26 C            8.3030    -3.2030    -1.0290 c3         1 503       0.113700
     27 C7           5.5250    -0.0280     0.7420 ca         1 503       0.004200
     28 C2           6.9100     0.2220     0.7790 ca         1 503      -0.083200
     29 N            7.5490    -0.8530     0.1930 na         1 503      -0.220400
     30 C6           4.6610     0.9250     1.2870 ca         1 503      -0.129000
     31 C5           5.2230     2.0610     1.8270 ca         1 503       0.119900
     32 F            4.3990     2.9890     2.3540 f          1 503      -0.148900
     33 C4           6.5900     2.3090     1.8600 ca         1 503      -0.163000
     34 C3           7.4570     1.3690     1.3260 ca         1 503      -0.108000
     35 H1          -6.3810    -0.3320    -2.4530 ha         1 503       0.154000
     36 H2          -7.2130    -2.6460    -2.3270 ha         1 503       0.137500
     37 H3          -8.5800    -3.3720    -0.4010 ha         1 503       0.135000
     38 H4          -9.1150    -1.7760     1.4110 ha         1 503       0.137500
     39 H5          -8.2850     0.5380     1.3060 ha         1 503       0.154000
     40 H6          -5.3560     1.8260     1.2030 hn         1 503       0.420800
     41 H7          -4.3640    -0.0750    -0.0240 h1         1 503       0.058700
     42 H8          -4.0380     1.0580    -1.3360 h1         1 503       0.058700
     43 H9          -2.5980     2.4160     0.0390 h1         1 503       0.042700
     44 H10         -2.9650     1.4890     1.4890 h1         1 503       0.042700
     45 H12         -0.4720     2.1060    -0.4250 h1         1 503       0.031700
     46 H13         -0.2620     1.5120     1.2220 h1         1 503       0.031700
     47 H14          0.5720     0.0980    -1.3530 hc         1 503       0.052700
     48 H15          1.6280     0.8540    -0.1690 hc         1 503       0.052700
     49 H16         -1.6380    -0.4850     1.9080 h1         1 503       0.031700
     50 H17         -2.7260    -1.1880     0.7160 h1         1 503       0.031700
     51 H18         -0.7090    -2.5560     1.0140 hc         1 503       0.052700
     52 H19         -0.8530    -1.9750    -0.6420 hc         1 503       0.052700
     53 H20          0.9040    -0.7880     1.5480 hc         1 503       0.056700
     54 H21          1.7170    -2.9140     0.5440 h1         1 503       0.048200
     55 H22          1.6270    -2.1830    -1.0660 h1         1 503       0.048200
     56 H23          8.7730    -2.4740    -1.6920 h1         1 503       0.052367
     57 H24          8.8590    -3.2660    -0.0920 h1         1 503       0.052367
     58 H25          8.3130    -4.1750    -1.5100 h1         1 503       0.052367
     59 H26          8.5490    -0.9330     0.0900 hn         1 503       0.304700
     60 H27          3.5890     0.7900     1.2990 ha         1 503       0.167000
     61 H28          6.9680     3.2230     2.2980 ha         1 503       0.151000
     62 H29          8.5270     1.5350     1.3390 ha         1 503       0.136000
@<TRIPOS>BOND
     1     1     2 2   
     2     2     3 2   
     3     2     4 1   
     4     2    10 1   
     5     4     5 ar  
     6     4     9 ar  
     7     5     6 ar  
     8     5    35 1   
     9     6     7 ar  
    10     6    36 1   
    11     7     8 ar  
    12     7    37 1   
    13     8     9 ar  
    14     8    38 1   
    15     9    39 1   
    16    10    11 1   
    17    10    40 1   
    18    11    12 1   
    19    11    41 1   
    20    11    42 1   
    21    12    13 1   
    22    12    43 1   
    23    12    44 1   
    24    13    14 1   
    25    13    16 1   
    26    14    15 1   
    27    14    45 1   
    28    14    46 1   
    29    15    18 1   
    30    15    47 1   
    31    15    48 1   
    32    16    17 1   
    33    16    49 1   
    34    16    50 1   
    35    17    18 1   
    36    17    51 1   
    37    17    52 1   
    38    18    19 1   
    39    18    53 1   
    40    19    20 1   
    41    19    54 1   
    42    19    55 1   
    43    20    21 1   
    44    21    22 2   
    45    21    23 1   
    46    23    24 2   
    47    23    27 1   
    48    24    25 1   
    49    24    29 1   
    50    25    26 1   
    51    26    56 1   
    52    26    57 1   
    53    26    58 1   
    54    27    28 ar  
    55    27    30 ar  
    56    28    29 1   
    57    28    34 ar  
    58    29    59 1   
    59    30    31 ar  
    60    30    60 1   
    61    31    32 1   
    62    31    33 ar  
    63    33    34 ar  
    64    33    61 1   
    65    34    62 1   
@<TRIPOS>SUBSTRUCTURE
     1 503         1 TEMP              0 ****  ****    0 ROOT
