@<TRIPOS>MOLECULE
503
   62    65     1     0     0
SMALL
No Charge or Current Charge


@<TRIPOS>ATOM
      1 O4          -7.8400     2.6730    -0.1590 o          1 503      -0.532000
      2 S           -7.0960     1.5650     0.4450 sy         1 503       1.149600
      3 O3          -7.2780     1.1560     1.8390 o          1 503      -0.532000
      4 C16         -7.1890     0.1340    -0.6450 ca         1 503      -0.310500
      5 C21         -7.2410     0.3190    -2.0430 ca         1 503      -0.016500
      6 C20         -7.3020    -0.7950    -2.8970 ca         1 503      -0.130000
      7 C19         -7.3110    -2.0960    -2.3640 ca         1 503      -0.057000
      8 C18         -7.2580    -2.2820    -0.9720 ca         1 503      -0.130000
      9 C17         -7.1960    -1.1730    -0.1110 ca         1 503      -0.016500
     10 N2          -5.4890     1.9940     0.3080 n7         1 503      -0.867300
     11 C15         -4.4770     0.9130     0.3420 c3         1 503       0.196800
     12 C14         -3.0340     1.4900     0.3260 c3         1 503       0.166800
     13 N1          -1.9380     0.4830     0.2460 n3         1 503      -0.722600
     14 C13         -0.6160     1.1270     0.0090 c6         1 503       0.167300
     15 C12          0.5020     0.0810    -0.2090 c6         1 503      -0.072400
     16 C22         -1.8840    -0.4350     1.4220 c6         1 503       0.167300
     17 C23         -0.7980    -1.5250     1.2460 c6         1 503      -0.072400
     18 C11          0.5960    -0.8980     0.9920 c6         1 503      -0.068700
     19 C10          1.6820    -1.9910     0.7850 c3         1 503       0.173600
     20 O2           2.9690    -1.3560     0.6920 os         1 503      -0.452100
     21 C9           4.0710    -2.1420     0.4840 c          1 503       0.649300
     22 O1           3.9990    -3.3580     0.3700 o          1 503      -0.503000
     23 C8           5.3390    -1.3850     0.4040 cc         1 503      -0.262400
     24 C1           6.5890    -1.9360     0.1830 cd         1 503       0.239000
     25 O            6.8600    -3.2670     0.0000 os         1 503      -0.285100
     26 C            8.2070    -3.7190    -0.2250 c3         1 503       0.136900
     27 C7           5.5810     0.0370     0.5240 ca         1 503       0.004200
     28 C2           6.9360     0.2360     0.3640 ca         1 503      -0.083200
     29 N            7.6010    -0.9620     0.1490 na         1 503      -0.270700
     30 C6           4.7120     1.1160     0.7620 ca         1 503      -0.111000
     31 C5           5.2650     2.4100     0.8260 ca         1 503       0.155000
     32 F            4.4580     3.4700     1.0510 f          1 503      -0.184000
     33 C4           6.6520     2.6130     0.6590 ca         1 503      -0.145000
     34 C3           7.5060     1.5160     0.4250 ca         1 503      -0.090000
     35 H1          -7.2280     1.3220    -2.4680 ha         1 503       0.136000
     36 H2          -7.3410    -0.6510    -3.9750 ha         1 503       0.119500
     37 H3          -7.3580    -2.9560    -3.0280 ha         1 503       0.117000
     38 H4          -7.2630    -3.2880    -0.5590 ha         1 503       0.119500
     39 H5          -7.1530    -1.3340     0.9650 ha         1 503       0.136000
     40 H6          -5.3860     2.5770     1.1360 hn         1 503       0.476000
     41 H7          -4.6080     0.2970     1.2420 h1         1 503       0.058700
     42 H8          -4.5820     0.2540    -0.5300 h1         1 503       0.058700
     43 H9          -2.9660     2.1600    -0.5420 h1         1 503       0.042700
     44 H10         -2.8990     2.1140     1.2200 h1         1 503       0.042700
     45 H12         -0.6640     1.7760    -0.8780 h1         1 503       0.031700
     46 H13         -0.3470     1.7670     0.8630 h1         1 503       0.031700
     47 H14          0.3020    -0.4770    -1.1340 hc         1 503       0.052700
     48 H15          1.4590     0.6000    -0.3580 hc         1 503       0.052700
     49 H16         -1.6760     0.1350     2.3390 h1         1 503       0.031700
     50 H17         -2.8490    -0.9410     1.5660 h1         1 503       0.031700
     51 H18         -0.7700    -2.1590     2.1430 hc         1 503       0.052700
     52 H19         -1.0750    -2.1790     0.4080 hc         1 503       0.052700
     53 H20          0.8910    -0.3330     1.8880 hc         1 503       0.056700
     54 H21          1.6570    -2.6860     1.6350 h1         1 503       0.048200
     55 H22          1.4560    -2.5550    -0.1300 h1         1 503       0.048200
     56 H23          8.6230    -3.2700    -1.1360 h1         1 503       0.052367
     57 H24          8.8530    -3.4620     0.6240 h1         1 503       0.052367
     58 H25          8.2250    -4.8090    -0.3470 h1         1 503       0.052367
     59 H26          8.5910    -1.1080    -0.0000 hn         1 503       0.355000
     60 H27          3.6450     0.9790     0.8960 ha         1 503       0.149000
     61 H28          7.0600     3.6200     0.7120 ha         1 503       0.133000
     62 H29          8.5770     1.6600     0.2970 ha         1 503       0.118000
@<TRIPOS>BOND
     1     1     2 2   
     2     2     3 2   
     3     2     4 1   
     4     2    10 1   
     5     4     5 ar  
     6     4     9 ar  
     7     5     6 ar  
     8     5    35 1   
     9     6     7 ar  
    10     6    36 1   
    11     7     8 ar  
    12     7    37 1   
    13     8     9 ar  
    14     8    38 1   
    15     9    39 1   
    16    10    11 1   
    17    10    40 1   
    18    11    12 1   
    19    11    41 1   
    20    11    42 1   
    21    12    13 1   
    22    12    43 1   
    23    12    44 1   
    24    13    14 1   
    25    13    16 1   
    26    14    15 1   
    27    14    45 1   
    28    14    46 1   
    29    15    18 1   
    30    15    47 1   
    31    15    48 1   
    32    16    17 1   
    33    16    49 1   
    34    16    50 1   
    35    17    18 1   
    36    17    51 1   
    37    17    52 1   
    38    18    19 1   
    39    18    53 1   
    40    19    20 1   
    41    19    54 1   
    42    19    55 1   
    43    20    21 1   
    44    21    22 2   
    45    21    23 1   
    46    23    24 2   
    47    23    27 1   
    48    24    25 1   
    49    24    29 1   
    50    25    26 1   
    51    26    56 1   
    52    26    57 1   
    53    26    58 1   
    54    27    28 ar  
    55    27    30 ar  
    56    28    29 1   
    57    28    34 ar  
    58    29    59 1   
    59    30    31 ar  
    60    30    60 1   
    61    31    32 1   
    62    31    33 ar  
    63    33    34 ar  
    64    33    61 1   
    65    34    62 1   
@<TRIPOS>SUBSTRUCTURE
     1 503         1 TEMP              0 ****  ****    0 ROOT
