@<TRIPOS>MOLECULE
504
   63    67     1     0     0
SMALL
No Charge or Current Charge


@<TRIPOS>ATOM
      1 C1          -1.3040     2.3340    -1.1700 ca         1 504      -0.070000
      2 C2          -0.3280     1.4970    -1.7340 ca         1 504      -0.135000
      3 C3          -0.6240     0.1510    -2.0190 ca         1 504      -0.042300
      4 C4          -1.9090    -0.3480    -1.7310 ca         1 504      -0.125000
      5 C5          -2.8920     0.4830    -1.1670 ca         1 504       0.150100
      6 C6          -2.5860     1.8320    -0.8860 ca         1 504      -0.192000
      7 O7          -4.1310    -0.0670    -0.9080 os         1 504      -0.350100
      8 C8          -5.2020     0.6980    -0.3320 c3         1 504       0.165600
      9 C9          -6.4190    -0.2360    -0.1900 c3         1 504      -0.081400
     10 C10         -7.6520     0.4710     0.4220 c3         1 504      -0.070400
     11 C11         -8.8870    -0.4440     0.6850 c6         1 504      -0.057700
     12 C12        -10.0060     0.3320     1.4350 c6         1 504      -0.111900
     13 C13        -11.2500    -0.5560     1.6740 c6         1 504       0.147800
     14 N14        -11.7580    -1.1100     0.3970 n7         1 504      -0.842400
     15 C15        -10.7370    -1.9100    -0.3200 c6         1 504       0.147800
     16 C16         -9.4730    -1.0650    -0.6150 c6         1 504      -0.111900
     17 C17          0.4370    -0.7610    -2.6260 c3         1 504      -0.104100
     18 C18          1.2240    -1.4760    -1.5240 c          1 504       0.603100
     19 O19          0.7730    -2.4460    -0.9340 o          1 504      -0.554100
     20 N20          2.4540    -0.9330    -1.2490 ns         1 504      -0.476400
     21 C21          3.3730    -1.3210    -0.3120 cc         1 504       0.537300
     22 N22          4.4870    -0.6190    -0.2440 nd         1 504      -0.712000
     23 C23          5.3020    -1.1370     0.7480 cd         1 504       0.418800
     24 C24          4.8010    -2.2270     1.4240 cc         1 504      -0.325000
     25 S25          3.2290    -2.6560     0.8170 ss         1 504       0.065600
     26 C26          6.6020    -0.5980     1.0830 cd         1 504      -0.179000
     27 C27          7.3780    -1.1600     2.0900 cc         1 504      -0.133100
     28 N28          8.5460    -0.3670     2.1080 na         1 504      -0.321400
     29 C30          8.5030     0.6390     1.1630 ca         1 504       0.361500
     30 C31          7.3010     0.5300     0.4970 ca         1 504      -0.108800
     31 C32          6.9540     1.4160    -0.5320 ca         1 504      -0.010000
     32 C33          7.9020     2.4100    -0.8360 ca         1 504      -0.203000
     33 C34          9.1120     2.4580    -0.1110 ca         1 504       0.356900
     34 N35          9.4190     1.5840     0.8820 nb         1 504      -0.686000
     35 H1          -1.0670     3.3740    -0.9530 ha         1 504       0.113000
     36 H2           0.6600     1.8980    -1.9490 ha         1 504       0.114000
     37 H3          -2.1510    -1.3860    -1.9420 ha         1 504       0.127000
     38 H4          -3.3220     2.5010    -0.4500 ha         1 504       0.117000
     39 H5          -4.9170     1.0810     0.6570 h1         1 504       0.033700
     40 H6          -5.4650     1.5460    -0.9770 h1         1 504       0.033700
     41 H7          -6.6730    -0.6290    -1.1810 hc         1 504       0.056700
     42 H8          -6.1420    -1.0910     0.4390 hc         1 504       0.056700
     43 H9          -7.3410     0.9300     1.3700 hc         1 504       0.039200
     44 H10         -7.9410     1.3010    -0.2350 hc         1 504       0.039200
     45 H11         -8.5400    -1.2590     1.3360 hc         1 504       0.050700
     46 H12         -9.6290     0.6970     2.4000 hc         1 504       0.043200
     47 H13        -10.2960     1.2220     0.8580 hc         1 504       0.043200
     48 H14        -10.9880    -1.3800     2.3560 h1         1 504       0.052200
     49 H15        -12.0390     0.0370     2.1620 h1         1 504       0.052200
     50 H16        -12.0270    -0.3230    -0.2070 hn         1 504       0.400000
     51 H18        -10.4590    -2.7840     0.2900 h1         1 504       0.052200
     52 H19        -11.1570    -2.2880    -1.2640 h1         1 504       0.052200
     53 H20         -9.7210    -0.2710    -1.3330 hc         1 504       0.043200
     54 H21         -8.7280    -1.7070    -1.1040 hc         1 504       0.043200
     55 H22         -0.0460    -1.5160    -3.2570 hc         1 504       0.072200
     56 H23          1.1170    -0.1590    -3.2410 hc         1 504       0.072200
     57 H24          2.7090    -0.1320    -1.8050 hn         1 504       0.338500
     58 H25          5.2330    -2.8040     2.2270 h4         1 504       0.156000
     59 H26          7.2200    -2.0030     2.7580 h4         1 504       0.216000
     60 H29          9.3340    -0.4990     2.7310 hn         1 504       0.362000
     61 H27          6.0120     1.3470    -1.0690 ha         1 504       0.136000
     62 H28          7.7100     3.1360    -1.6210 ha         1 504       0.119000
     63 H30          9.8590     3.2210    -0.3320 h4         1 504       0.016100
@<TRIPOS>BOND
     1     1     2 ar  
     2     1     6 ar  
     3     1    35 1   
     4     2     3 ar  
     5     2    36 1   
     6     3     4 ar  
     7     3    17 1   
     8     4     5 ar  
     9     4    37 1   
    10     5     6 ar  
    11     5     7 1   
    12     6    38 1   
    13     7     8 1   
    14     8     9 1   
    15     8    39 1   
    16     8    40 1   
    17     9    10 1   
    18     9    41 1   
    19     9    42 1   
    20    10    11 1   
    21    10    43 1   
    22    10    44 1   
    23    11    12 1   
    24    11    16 1   
    25    11    45 1   
    26    12    13 1   
    27    12    46 1   
    28    12    47 1   
    29    13    14 1   
    30    13    48 1   
    31    13    49 1   
    32    14    15 1   
    33    14    50 1   
    34    15    16 1   
    35    15    51 1   
    36    15    52 1   
    37    16    53 1   
    38    16    54 1   
    39    17    18 1   
    40    17    55 1   
    41    17    56 1   
    42    18    19 2   
    43    18    20 1   
    44    20    21 1   
    45    20    57 1   
    46    21    22 2   
    47    21    25 1   
    48    22    23 1   
    49    23    24 2   
    50    23    26 1   
    51    24    25 1   
    52    24    58 1   
    53    26    27 2   
    54    26    30 1   
    55    27    28 1   
    56    27    59 1   
    57    28    29 1   
    58    28    60 1   
    59    29    30 ar  
    60    29    34 ar  
    61    30    31 ar  
    62    31    32 ar  
    63    31    61 1   
    64    32    33 ar  
    65    32    62 1   
    66    33    34 ar  
    67    33    63 1   
@<TRIPOS>SUBSTRUCTURE
     1 504         1 TEMP              0 ****  ****    0 ROOT
