@<TRIPOS>MOLECULE
504
   63    67     1     0     0
SMALL
abcg2


@<TRIPOS>ATOM
      1 C1          -2.2820     3.4090     1.0100 ca         1 504      -0.070000
      2 C2          -1.0580     3.0600     0.4670 ca         1 504      -0.135000
      3 C3          -0.9400     1.8840    -0.2720 ca         1 504      -0.042300
      4 C4          -2.0510     1.0760    -0.4510 ca         1 504      -0.125000
      5 C5          -3.2870     1.4290     0.0960 ca         1 504       0.150100
      6 C6          -3.4040     2.6050     0.8310 ca         1 504      -0.192000
      7 O7          -4.3020     0.5760    -0.1410 os         1 504      -0.350100
      8 C8          -5.6050     0.9140     0.3100 c3         1 504       0.165600
      9 C9          -6.5510    -0.2000    -0.0850 c3         1 504      -0.081400
     10 C10         -7.9860     0.1390     0.3060 c3         1 504      -0.070400
     11 C11         -8.9770    -1.0060     0.1120 c6         1 504      -0.057700
     12 C12        -10.3670    -0.6100     0.6100 c6         1 504      -0.111900
     13 C13        -11.3820    -1.7280     0.3870 c6         1 504       0.147800
     14 N14        -11.4500    -2.1930    -0.9900 n7         1 504      -0.842400
     15 C15        -10.1360    -2.5650    -1.4920 c6         1 504       0.147800
     16 C16         -9.0750    -1.4760    -1.3390 c6         1 504      -0.111900
     17 C17          0.3830     1.4940    -0.8610 c3         1 504      -0.104100
     18 C18          1.2450     0.7280     0.1170 c          1 504       0.603100
     19 O19          0.8290     0.1930     1.1240 o          1 504      -0.554100
     20 N20          2.5590     0.6560    -0.2320 ns         1 504      -0.476400
     21 C21          3.5190    -0.0240     0.4760 cc         1 504       0.537300
     22 N22          4.7500    -0.0560     0.0830 nd         1 504      -0.712000
     23 C23          5.5270    -0.7880     0.9450 cd         1 504       0.418800
     24 C24          4.8500    -1.3190     2.0010 cc         1 504      -0.325000
     25 S25          3.1850    -0.8830     1.9370 ss         1 504       0.065600
     26 C26          6.9460    -0.9220     0.6660 cd         1 504      -0.179000
     27 C27          7.8980    -1.4560     1.4970 cc         1 504      -0.133100
     28 N28          9.1200    -1.4230     0.8990 na         1 504      -0.321400
     29 C30          9.0020    -0.8600    -0.3350 ca         1 504       0.361500
     30 C31          7.6410    -0.5270    -0.5270 ca         1 504      -0.108800
     31 C32          7.3100     0.0610    -1.7470 ca         1 504      -0.010000
     32 C33          8.3320     0.2710    -2.6560 ca         1 504      -0.203000
     33 C34          9.6420    -0.1030    -2.3370 ca         1 504       0.356900
     34 N35          9.9920    -0.6670    -1.1900 nb         1 504      -0.686000
     35 H1          -2.3780     4.3220     1.5810 ha         1 504       0.113000
     36 H2          -0.1960     3.7000     0.6100 ha         1 504       0.114000
     37 H3          -1.9740     0.1620    -1.0280 ha         1 504       0.127000
     38 H4          -4.3450     2.9120     1.2640 ha         1 504       0.117000
     39 H5          -5.6130     1.0420     1.3990 h1         1 504       0.033700
     40 H6          -5.9240     1.8640    -0.1350 h1         1 504       0.033700
     41 H7          -6.4800    -0.3690    -1.1630 hc         1 504       0.056700
     42 H8          -6.2440    -1.1280     0.4060 hc         1 504       0.056700
     43 H9          -8.0090     0.4410     1.3590 hc         1 504       0.039200
     44 H10         -8.3260     1.0100    -0.2660 hc         1 504       0.039200
     45 H11         -8.6320    -1.8570     0.7170 hc         1 504       0.050700
     46 H12        -10.3290    -0.3470     1.6720 hc         1 504       0.043200
     47 H13        -10.6980     0.2890     0.0750 hc         1 504       0.043200
     48 H14        -11.1200    -2.5830     1.0200 h1         1 504       0.052200
     49 H15        -12.3780    -1.4050     0.6970 h1         1 504       0.052200
     50 H16        -11.8150    -1.4420    -1.5670 hn         1 504       0.400000
     51 H18         -9.8090    -3.4590    -0.9480 h1         1 504       0.052200
     52 H19        -10.2310    -2.8580    -2.5400 h1         1 504       0.052200
     53 H20         -9.3310    -0.6240    -1.9810 hc         1 504       0.043200
     54 H21         -8.1130    -1.8570    -1.6930 hc         1 504       0.043200
     55 H22          0.2440     0.8550    -1.7390 hc         1 504       0.072200
     56 H23          0.9260     2.3750    -1.2110 hc         1 504       0.072200
     57 H24          2.8830     1.1180    -1.0710 hn         1 504       0.338500
     58 H25          5.2270    -1.9330     2.8030 h4         1 504       0.156000
     59 H26          7.7900    -1.8610     2.4910 h4         1 504       0.216000
     60 H29          9.9820    -1.7300     1.3190 hn         1 504       0.362000
     61 H27          6.2920     0.3450    -1.9750 ha         1 504       0.136000
     62 H28          8.1310     0.7270    -3.6150 ha         1 504       0.119000
     63 H30         10.4380     0.0660    -3.0520 h4         1 504       0.016100
@<TRIPOS>BOND
     1     1     2 ar  
     2     1     6 ar  
     3     1    35 1   
     4     2     3 ar  
     5     2    36 1   
     6     3     4 ar  
     7     3    17 1   
     8     4     5 ar  
     9     4    37 1   
    10     5     6 ar  
    11     5     7 1   
    12     6    38 1   
    13     7     8 1   
    14     8     9 1   
    15     8    39 1   
    16     8    40 1   
    17     9    10 1   
    18     9    41 1   
    19     9    42 1   
    20    10    11 1   
    21    10    43 1   
    22    10    44 1   
    23    11    12 1   
    24    11    16 1   
    25    11    45 1   
    26    12    13 1   
    27    12    46 1   
    28    12    47 1   
    29    13    14 1   
    30    13    48 1   
    31    13    49 1   
    32    14    15 1   
    33    14    50 1   
    34    15    16 1   
    35    15    51 1   
    36    15    52 1   
    37    16    53 1   
    38    16    54 1   
    39    17    18 1   
    40    17    55 1   
    41    17    56 1   
    42    18    19 2   
    43    18    20 1   
    44    20    21 1   
    45    20    57 1   
    46    21    22 2   
    47    21    25 1   
    48    22    23 1   
    49    23    24 2   
    50    23    26 1   
    51    24    25 1   
    52    24    58 1   
    53    26    27 2   
    54    26    30 1   
    55    27    28 1   
    56    27    59 1   
    57    28    29 1   
    58    28    60 1   
    59    29    30 ar  
    60    29    34 ar  
    61    30    31 ar  
    62    31    32 ar  
    63    31    61 1   
    64    32    33 ar  
    65    32    62 1   
    66    33    34 ar  
    67    33    63 1   
@<TRIPOS>SUBSTRUCTURE
     1 504         1 TEMP              0 ****  ****    0 ROOT
