@<TRIPOS>MOLECULE
505
   30    30     1     0     0
SMALL
abcg2


@<TRIPOS>ATOM
      1 C1          31.6950     3.5590    27.7280 c3         1 505      -0.081100
      2 C2          32.5890     4.7930    27.7180 c3         1 505       0.165500
      3 N3          33.2540     4.9100    26.4270 n8         1 505      -0.994200
      4 C4          31.8290     6.0430    28.1420 c3         1 505       0.123600
      5 O5          30.7650     6.2640    27.2230 os         1 505      -0.374100
      6 C6          30.0450     7.4030    27.4350 ca         1 505       0.097100
      7 C7          28.9100     7.3440    28.2470 ca         1 505      -0.086800
      8 C8          28.4900     6.0530    28.8880 c3         1 505      -0.041800
      9 C9          28.1710     8.5100    28.4300 ca         1 505      -0.105500
     10 C10         28.5540     9.6980    27.8250 ca         1 505      -0.109000
     11 C11         29.6760     9.7290    27.0120 ca         1 505      -0.105500
     12 C12         30.4410     8.5840    26.8030 ca         1 505      -0.086800
     13 C13         31.6460     8.6120    25.9070 c3         1 505      -0.041800
     14 H1C1        31.1970     3.4460    28.6910 hc         1 505       0.041033
     15 H1C2        30.9230     3.6190    26.9600 hc         1 505       0.041033
     16 H1C3        32.2830     2.6590    27.5440 hc         1 505       0.041033
     17 H2          33.3680     4.6550    28.4750 h1         1 505       0.058700
     18 H3N1        32.5650     5.0990    25.7080 hn         1 505       0.397500
     19 H3N2        33.8760     5.7100    26.4310 hn         1 505       0.397500
     20 H4C1        31.4400     5.9240    29.1600 h1         1 505       0.031700
     21 H4C2        32.5100     6.9030    28.1510 h1         1 505       0.031700
     22 H8C1        28.4820     5.2290    28.1750 hc         1 505       0.043367
     23 H8C2        29.1630     5.7640    29.6980 hc         1 505       0.043367
     24 H8C3        27.4920     6.1410    29.3150 hc         1 505       0.043367
     25 H9          27.2860     8.4840    29.0540 ha         1 505       0.113000
     26 H10         27.9690    10.5970    27.9770 ha         1 505       0.115000
     27 H11         29.9660    10.6540    26.5270 ha         1 505       0.113000
     28 H131        31.6550     7.7710    25.2150 hc         1 505       0.043367
     29 H132        31.6710     9.5320    25.3250 hc         1 505       0.043367
     30 H133        32.5770     8.5640    26.4770 hc         1 505       0.043367
@<TRIPOS>BOND
     1     1     2 1   
     2     1    14 1   
     3     1    15 1   
     4     1    16 1   
     5     2     3 1   
     6     2     4 1   
     7     2    17 1   
     8     3    18 1   
     9     3    19 1   
    10     4     5 1   
    11     4    20 1   
    12     4    21 1   
    13     5     6 1   
    14     6     7 ar  
    15     6    12 ar  
    16     7     8 1   
    17     7     9 ar  
    18     8    22 1   
    19     8    23 1   
    20     8    24 1   
    21     9    10 ar  
    22     9    25 1   
    23    10    11 ar  
    24    10    26 1   
    25    11    12 ar  
    26    11    27 1   
    27    12    13 1   
    28    13    28 1   
    29    13    29 1   
    30    13    30 1   
@<TRIPOS>SUBSTRUCTURE
     1 505         1 TEMP              0 ****  ****    0 ROOT
