@<TRIPOS>MOLECULE
505
   30    30     1     0     0
SMALL
No Charge or Current Charge


@<TRIPOS>ATOM
      1 C1          31.6610     3.5120    27.9650 c3         1 505      -0.081100
      2 C2          32.6110     4.7020    27.7150 c3         1 505       0.165500
      3 N3          33.0920     4.6750    26.3130 n8         1 505      -0.994200
      4 C4          31.9610     6.0690    28.0820 c3         1 505       0.123600
      5 O5          30.8750     6.3360    27.1730 os         1 505      -0.374100
      6 C6          30.0870     7.4430    27.3840 ca         1 505       0.097100
      7 C7          28.9130     7.3230    28.1620 ca         1 505      -0.086800
      8 C8          28.5050     5.9830    28.7660 c3         1 505      -0.041800
      9 C9          28.1120     8.4610    28.3820 ca         1 505      -0.105500
     10 C10         28.4740     9.7000    27.8280 ca         1 505      -0.109000
     11 C11         29.6350     9.8120    27.0460 ca         1 505      -0.105500
     12 C12         30.4480     8.6860    26.8140 ca         1 505      -0.086800
     13 C13         31.7010     8.8270    25.9550 c3         1 505      -0.041800
     14 H1C1        31.3330     3.4970    29.0120 hc         1 505       0.041033
     15 H1C2        30.7690     3.5750    27.3300 hc         1 505       0.041033
     16 H1C3        32.1660     2.5610    27.7570 hc         1 505       0.041033
     17 H2          33.4850     4.5650    28.3690 h1         1 505       0.058700
     18 H3N1        32.3140     4.9900    25.7210 hn         1 505       0.397500
     19 H3N2        33.7880     5.4190    26.1880 hn         1 505       0.397500
     20 H4C1        31.5980     6.0300    29.1170 h1         1 505       0.031700
     21 H4C2        32.7160     6.8630    28.0210 h1         1 505       0.031700
     22 H8C1        28.5380     5.1840    28.0150 hc         1 505       0.043367
     23 H8C2        29.1770     5.7010    29.5860 hc         1 505       0.043367
     24 H8C3        27.4860     6.0110    29.1680 hc         1 505       0.043367
     25 H9          27.2080     8.3870    28.9830 ha         1 505       0.113000
     26 H10         27.8500    10.5740    28.0030 ha         1 505       0.115000
     27 H11         29.9010    10.7770    26.6200 ha         1 505       0.113000
     28 H131        31.7940     7.9950    25.2470 hc         1 505       0.043367
     29 H132        31.6870     9.7530    25.3690 hc         1 505       0.043367
     30 H133        32.6030     8.8420    26.5780 hc         1 505       0.043367
@<TRIPOS>BOND
     1     1     2 1   
     2     1    14 1   
     3     1    15 1   
     4     1    16 1   
     5     2     3 1   
     6     2     4 1   
     7     2    17 1   
     8     3    18 1   
     9     3    19 1   
    10     4     5 1   
    11     4    20 1   
    12     4    21 1   
    13     5     6 1   
    14     6     7 ar  
    15     6    12 ar  
    16     7     8 1   
    17     7     9 ar  
    18     8    22 1   
    19     8    23 1   
    20     8    24 1   
    21     9    10 ar  
    22     9    25 1   
    23    10    11 ar  
    24    10    26 1   
    25    11    12 ar  
    26    11    27 1   
    27    12    13 1   
    28    13    28 1   
    29    13    29 1   
    30    13    30 1   
@<TRIPOS>SUBSTRUCTURE
     1 505         1 TEMP              0 ****  ****    0 ROOT
