@<TRIPOS>MOLECULE
506
   45    47     1     0     0
SMALL
bcc


@<TRIPOS>ATOM
      1 OAC         -3.4810    -1.6070     1.1230 o          1 506      -0.636500
      2 CBC         -2.5820    -1.8140     0.3340 c          1 506       0.826500
      3 NAS         -1.6500    -2.8000     0.5210 ns         1 506      -0.601500
      4 CBB         -0.5940    -3.1470    -0.3100 c          1 506       0.733700
      5 OAB          0.1340    -4.0790    -0.0230 o          1 506      -0.605500
      6 CAK         -0.4860    -2.3090    -1.4770 cc         1 506      -0.333200
      7 CAL         -1.3810    -1.3250    -1.6690 cd         1 506       0.067600
      8 NBD         -2.4190    -1.0790    -0.8190 n          1 506      -0.373000
      9 CAR         -3.3630    -0.0040    -1.0980 c3         1 506       0.108000
     10 CAQ         -3.0640     1.2530    -0.3160 c3         1 506       0.119400
     11 OAT         -1.7520     1.6760    -0.6720 os         1 506      -0.342900
     12 CBA         -1.2680     2.7290     0.0250 ca         1 506       0.121100
     13 CAO         -1.7200     4.0210    -0.2130 ca         1 506      -0.196000
     14 CAV         -1.1570     5.0620     0.4980 ca         1 506       0.154900
     15 FAD         -1.5950     6.3070     0.2630 f          1 506      -0.133900
     16 CAI         -0.1590     4.8680     1.4330 ca         1 506      -0.166000
     17 CAJ          0.2880     3.5750     1.6600 ca         1 506      -0.091000
     18 CAZ         -0.2700     2.5100     0.9730 ca         1 506       0.064100
     19 OAU          0.1220     1.2330     1.2750 os         1 506      -0.238200
     20 CAY          0.9940     0.5810     0.4680 ca         1 506       0.168100
     21 CAP          1.4360    -0.6570     0.9240 ca         1 506      -0.164000
     22 CAN          1.4550     1.0920    -0.7360 ca         1 506      -0.237000
     23 CAW          2.3470     0.3230    -1.4630 ca         1 506       0.165900
     24 FAE          2.7790     0.8100    -2.6340 f          1 506      -0.140900
     25 CAM          2.8080    -0.9030    -1.0480 ca         1 506      -0.191000
     26 CAX          2.3470    -1.3960     0.1770 ca         1 506      -0.003800
     27 CAH          2.7940    -2.6750     0.7170 ce         1 506      -0.049200
     28 CAG          3.7500    -3.4510     0.1890 cf         1 506      -0.044700
     29 CAF          4.1070    -4.6830     0.7940 ch         1 506       0.188500
     30 NAA          4.4100    -5.6900     1.2690 n1         1 506      -0.361800
     31 H1          -1.7660    -3.3500     1.3630 hn         1 506       0.341500
     32 H2           0.3130    -2.4680    -2.1820 ha         1 506       0.174000
     33 H3          -1.3290    -0.6780    -2.5320 h4         1 506       0.160000
     34 H4          -3.3230     0.1990    -2.1670 h1         1 506       0.076200
     35 H5          -4.3740    -0.3370    -0.8700 h1         1 506       0.076200
     36 H6          -3.8080     2.0130    -0.5760 h1         1 506       0.057700
     37 H7          -3.1280     1.0730     0.7600 h1         1 506       0.057700
     38 H8          -2.4900     4.2060    -0.9510 ha         1 506       0.162000
     39 H9           0.2630     5.7030     1.9740 ha         1 506       0.161000
     40 H10          1.0630     3.3930     2.3930 ha         1 506       0.157000
     41 H11          1.0760    -1.0360     1.8720 ha         1 506       0.155000
     42 H12          1.1480     2.0570    -1.1170 ha         1 506       0.164000
     43 H13          3.5010    -1.4560    -1.6670 ha         1 506       0.155000
     44 H14          2.3080    -2.9940     1.6310 ha         1 506       0.143000
     45 H15          4.2900    -3.1960    -0.7140 ha         1 506       0.150000
@<TRIPOS>BOND
     1     1     2 2   
     2     2     3 1   
     3     2     8 1   
     4     3     4 1   
     5     3    31 1   
     6     4     5 2   
     7     4     6 1   
     8     6     7 2   
     9     6    32 1   
    10     7     8 1   
    11     7    33 1   
    12     8     9 1   
    13     9    10 1   
    14     9    34 1   
    15     9    35 1   
    16    10    11 1   
    17    10    36 1   
    18    10    37 1   
    19    11    12 1   
    20    12    13 ar  
    21    12    18 ar  
    22    13    14 ar  
    23    13    38 1   
    24    14    15 1   
    25    14    16 ar  
    26    16    17 ar  
    27    16    39 1   
    28    17    18 ar  
    29    17    40 1   
    30    18    19 1   
    31    19    20 1   
    32    20    21 ar  
    33    20    22 ar  
    34    21    26 ar  
    35    21    41 1   
    36    22    23 ar  
    37    22    42 1   
    38    23    24 1   
    39    23    25 ar  
    40    25    26 ar  
    41    25    43 1   
    42    26    27 1   
    43    27    28 2   
    44    27    44 1   
    45    28    29 1   
    46    28    45 1   
    47    29    30 3   
@<TRIPOS>SUBSTRUCTURE
     1 506         1 TEMP              0 ****  ****    0 ROOT
