@<TRIPOS>MOLECULE
506
   45    47     1     0     0
SMALL
No Charge or Current Charge


@<TRIPOS>ATOM
      1 OAC         -4.4970    -1.6790    -0.3050 o          1 506      -0.561000
      2 CBC         -3.3450    -1.9940    -0.0530 c          1 506       0.617000
      3 NAS         -3.0790    -3.0050     0.8170 ns         1 506      -0.467500
      4 CBB         -1.8680    -3.4790     1.2060 c          1 506       0.591200
      5 OAB         -1.7520    -4.3970     1.9980 o          1 506      -0.530000
      6 CAK         -0.7440    -2.7870     0.5840 cc         1 506      -0.383200
      7 CAL         -0.9310    -1.7530    -0.3040 cd         1 506       0.017600
      8 NBD         -2.2240    -1.3500    -0.6220 n          1 506      -0.306000
      9 CAR         -2.4400    -0.2550    -1.6010 c3         1 506       0.108000
     10 CAQ         -2.5150     1.1540    -0.9730 c3         1 506       0.142600
     11 OAT         -1.3110     1.3940    -0.2160 os         1 506      -0.366100
     12 CBA         -1.0520     2.6040     0.4070 ca         1 506       0.121100
     13 CAO         -1.9210     3.7100     0.2650 ca         1 506      -0.178000
     14 CAV         -1.6320     4.9190     0.9150 ca         1 506       0.190000
     15 FAD         -2.4680     5.9700     0.7730 f          1 506      -0.169000
     16 CAI         -0.4870     5.0460     1.7140 ca         1 506      -0.148000
     17 CAJ          0.3820     3.9520     1.8650 ca         1 506      -0.073000
     18 CAZ          0.1120     2.7380     1.2090 ca         1 506       0.064100
     19 OAU          0.9820     1.6870     1.4150 os         1 506      -0.238200
     20 CAY          1.5770     0.9750     0.3970 ca         1 506       0.168100
     21 CAP          2.0560    -0.3150     0.6780 ca         1 506      -0.146000
     22 CAN          1.7370     1.5160    -0.8910 ca         1 506      -0.219000
     23 CAW          2.3460     0.7490    -1.8910 ca         1 506       0.201000
     24 FAE          2.4930     1.2640    -3.1300 f          1 506      -0.176000
     25 CAM          2.8060    -0.5480    -1.6180 ca         1 506      -0.173000
     26 CAX          2.6670    -1.0930    -0.3250 ca         1 506      -0.003800
     27 CAH          3.1460    -2.4670     0.0010 ce         1 506      -0.099200
     28 CAG          3.5420    -3.4610    -0.8460 cf         1 506      -0.094700
     29 CAF          3.9770    -4.7490    -0.4130 ch         1 506       0.277700
     30 NAA          4.3280    -5.7900    -0.0190 n1         1 506      -0.451000
     31 H1          -3.8810    -3.4590     1.2230 hn         1 506       0.341500
     32 H2           0.2420    -3.1380     0.8650 ha         1 506       0.224000
     33 H3          -0.1410    -1.1960    -0.8020 h4         1 506       0.210000
     34 H4          -1.6200    -0.2660    -2.3310 h1         1 506       0.076200
     35 H5          -3.3610    -0.4410    -2.1670 h1         1 506       0.076200
     36 H6          -2.6220     1.8890    -1.7800 h1         1 506       0.057700
     37 H7          -3.3980     1.2150    -0.3240 h1         1 506       0.057700
     38 H8          -2.8210     3.6550    -0.3380 ha         1 506       0.144000
     39 H9          -0.2780     5.9870     2.2160 ha         1 506       0.143000
     40 H10          1.2680     4.0440     2.4890 ha         1 506       0.139000
     41 H11          1.9340    -0.7150     1.6810 ha         1 506       0.137000
     42 H12          1.3920     2.5190    -1.1220 ha         1 506       0.146000
     43 H13          3.2790    -1.1130    -2.4150 ha         1 506       0.137000
     44 H14          3.1640    -2.6850     1.0710 ha         1 506       0.193000
     45 H15          3.5300    -3.3020    -1.9220 ha         1 506       0.200000
@<TRIPOS>BOND
     1     1     2 2   
     2     2     3 1   
     3     2     8 1   
     4     3     4 1   
     5     3    31 1   
     6     4     5 2   
     7     4     6 1   
     8     6     7 2   
     9     6    32 1   
    10     7     8 1   
    11     7    33 1   
    12     8     9 1   
    13     9    10 1   
    14     9    34 1   
    15     9    35 1   
    16    10    11 1   
    17    10    36 1   
    18    10    37 1   
    19    11    12 1   
    20    12    13 ar  
    21    12    18 ar  
    22    13    14 ar  
    23    13    38 1   
    24    14    15 1   
    25    14    16 ar  
    26    16    17 ar  
    27    16    39 1   
    28    17    18 ar  
    29    17    40 1   
    30    18    19 1   
    31    19    20 1   
    32    20    21 ar  
    33    20    22 ar  
    34    21    26 ar  
    35    21    41 1   
    36    22    23 ar  
    37    22    42 1   
    38    23    24 1   
    39    23    25 ar  
    40    25    26 ar  
    41    25    43 1   
    42    26    27 1   
    43    27    28 2   
    44    27    44 1   
    45    28    29 1   
    46    28    45 1   
    47    29    30 3   
@<TRIPOS>SUBSTRUCTURE
     1 506         1 TEMP              0 ****  ****    0 ROOT
