@<TRIPOS>MOLECULE
507
   45    48     1     0     0
SMALL
No Charge or Current Charge


@<TRIPOS>ATOM
      1 CAA          6.3310     2.4390     0.2010 c3         1 507      -0.195100
      2 OAB          6.1910     0.0590     0.2000 o          1 507      -0.524100
      3 CAC          1.9180     2.2910    -0.0690 ca         1 507      -0.129000
      4 CAD          3.3160     2.3240     0.0180 ca         1 507      -0.073000
      5 CAE          1.2330     1.0680    -0.1030 ca         1 507      -0.071000
      6 CAF         -2.5590    -2.9790     0.0110 cc         1 507      -0.207000
      7 CAG         -1.4990    -3.8470    -0.0640 cd         1 507       0.014000
      8 CAH          1.8580    -2.7390    -0.1280 cc         1 507      -0.042400
      9 CAI          3.3460    -0.1070     0.0310 ca         1 507      -0.050000
     10 CAJ         -4.8420     2.6560     1.0210 c6         1 507       0.157100
     11 CAK         -3.5800     2.8470    -1.0380 c6         1 507       0.157100
     12 CAL         -4.7360     1.1140     1.0110 c6         1 507      -0.132900
     13 CAM         -3.4130     1.3150    -1.1450 c6         1 507      -0.132900
     14 NAN          0.9540    -3.7780    -0.1380 nc         1 507      -0.258600
     15 NAO         -1.1360    -0.9410     0.0490 nd         1 507      -0.594800
     16 OAQ         -4.8020     3.1570    -0.3330 os         1 507      -0.447000
     17 CAR          5.5670     1.1130     0.1590 c          1 507       0.583700
     18 CAS          4.0520     1.1200     0.0680 ca         1 507      -0.178600
     19 CAT          1.9340    -0.1590    -0.0500 ca         1 507      -0.014800
     20 CAU         -2.3070    -1.5670     0.0680 cc         1 507       0.592900
     21 CAV          1.2560    -1.4880    -0.0870 cd         1 507      -0.082300
     22 CAW         -0.2300    -3.2040    -0.0900 cd         1 507      -0.157000
     23 CAX         -3.4560     0.6770     0.2640 c6         1 507       0.237500
     24 NAY         -0.0880    -1.8350    -0.0600 na         1 507       0.284900
     25 HAA          7.4160     2.2980     0.2690 hc         1 507       0.061367
     26 HAAA         6.0590     3.0370    -0.6750 hc         1 507       0.061367
     27 HAAB         5.9540     3.0430     1.0340 hc         1 507       0.061367
     28 HAC          1.3590     3.2230    -0.1120 ha         1 507       0.113000
     29 HAD          3.8100     3.2920     0.0420 ha         1 507       0.114000
     30 HAE          0.1540     1.1040    -0.1850 ha         1 507       0.137000
     31 HAF         -3.5770    -3.3490     0.0380 ha         1 507       0.132000
     32 HAG         -1.6190    -4.9260    -0.0950 ha         1 507       0.148000
     33 HAH          2.9170    -2.9730    -0.1570 h4         1 507       0.234000
     34 HAI          3.9130    -1.0320     0.0740 ha         1 507       0.135000
     35 HAJA        -4.0150     3.0950     1.5980 h1         1 507       0.048450
     36 HAK         -2.7270     3.2900    -0.5030 h1         1 507       0.048450
     37 HAKA        -3.6230     3.2920    -2.0420 h1         1 507       0.048450
     38 HAL         -4.7210     0.7360     2.0420 hc         1 507       0.058950
     39 HALA        -5.6270     0.6930     0.5270 hc         1 507       0.058950
     40 HAM         -4.2120     0.9020    -1.7750 hc         1 507       0.058950
     41 HAMA        -2.4620     1.0790    -1.6410 hc         1 507       0.058950
     42 HAX         -2.5900     1.0400     0.8410 h1         1 507       0.074700
     43 NAP         -3.4320    -0.7910     0.1530 nu         1 507      -0.926100
     44 HAJ         -5.7880     2.9650     1.4900 h1         1 507       0.048450
     45 HNAP        -4.3080    -1.3060     0.1710 hn         1 507       0.492000
@<TRIPOS>BOND
     1     1    17 1   
     2     1    25 1   
     3     1    26 1   
     4     1    27 1   
     5     2    17 2   
     6     3     4 ar  
     7     3     5 ar  
     8     3    28 1   
     9     4    18 ar  
    10     4    29 1   
    11     5    19 ar  
    12     5    30 1   
    13     6     7 2   
    14     6    20 1   
    15     6    31 1   
    16     7    22 1   
    17     7    32 1   
    18     8    14 1   
    19     8    21 2   
    20     8    33 1   
    21     9    18 ar  
    22     9    19 ar  
    23     9    34 1   
    24    10    12 1   
    25    10    16 1   
    26    10    35 1   
    27    10    44 1   
    28    11    13 1   
    29    11    16 1   
    30    11    36 1   
    31    11    37 1   
    32    12    23 1   
    33    12    38 1   
    34    12    39 1   
    35    13    23 1   
    36    13    40 1   
    37    13    41 1   
    38    14    22 2   
    39    15    20 2   
    40    15    24 1   
    41    17    18 1   
    42    19    21 1   
    43    20    43 1   
    44    21    24 1   
    45    22    24 1   
    46    23    42 1   
    47    23    43 1   
    48    43    45 1   
@<TRIPOS>SUBSTRUCTURE
     1 507         1 TEMP              0 ****  ****    0 ROOT
