@<TRIPOS>MOLECULE
507
   45    48     1     0     0
SMALL
bcc


@<TRIPOS>ATOM
      1 CAA          5.9100     2.5830    -0.0290 c3         1 507      -0.195100
      2 OAB          5.9090     0.2240    -0.2900 o          1 507      -0.524100
      3 CAC          1.6200     2.1830     0.3090 ca         1 507      -0.147000
      4 CAD          2.9930     2.3060     0.1870 ca         1 507      -0.091000
      5 CAE          1.0090     0.9390     0.2620 ca         1 507      -0.089000
      6 CAF         -2.5590    -3.0320     0.0070 cc         1 507      -0.290300
      7 CAG         -1.4860    -3.8510    -0.0770 cd         1 507      -0.004000
      8 CAH          1.8610    -2.7910    -0.0760 cc         1 507       0.007600
      9 CAI          3.1540    -0.0840    -0.0350 ca         1 507      -0.068000
     10 CAJ         -4.5120     2.7560     0.8470 c6         1 507       0.133900
     11 CAK         -3.0790     2.7750    -1.0010 c6         1 507       0.133900
     12 CAL         -4.5930     1.2370     0.8710 c6         1 507      -0.132900
     13 CAM         -3.0640     1.2570    -1.0960 c6         1 507      -0.132900
     14 NAN          1.0040    -3.8230    -0.1270 nc         1 507      -0.258600
     15 NAO         -1.1550    -1.0710     0.1230 nd         1 507      -0.594800
     16 OAQ         -4.2840     3.2590    -0.4510 os         1 507      -0.400600
     17 CAR          5.2560     1.2320    -0.1170 c          1 507       0.583700
     18 CAS          3.7720     1.1610     0.0160 ca         1 507      -0.178600
     19 CAT          1.7700    -0.2240     0.0870 ca         1 507      -0.014800
     20 CAU         -2.3450    -1.6150     0.1180 cc         1 507       0.658200
     21 CAV          1.2080    -1.5690     0.0260 cd         1 507      -0.082300
     22 CAW         -0.1990    -3.2760    -0.0560 cd         1 507      -0.106300
     23 CAX         -3.3210     0.6410     0.2810 c6         1 507       0.237500
     24 NAY         -0.1180    -1.9120     0.0430 na         1 507       0.234200
     25 HAA          6.9910     2.4860    -0.0990 hc         1 507       0.061367
     26 HAAA         5.5620     3.2310    -0.8350 hc         1 507       0.061367
     27 HAAB         5.6580     3.0780     0.9100 hc         1 507       0.061367
     28 HAC          1.0100     3.0670     0.4450 ha         1 507       0.131000
     29 HAD          3.4430     3.2890     0.2270 ha         1 507       0.132000
     30 HAE         -0.0620     0.8720     0.3630 ha         1 507       0.155000
     31 HAF         -3.5680    -3.4210     0.0010 ha         1 507       0.150000
     32 HAG         -1.5880    -4.9240    -0.1580 ha         1 507       0.166000
     33 HAH          2.9280    -2.9490    -0.1120 h4         1 507       0.184000
     34 HAI          3.7760    -0.9580    -0.1720 ha         1 507       0.153000
     35 HAJA        -3.7160     3.0870     1.5310 h1         1 507       0.048450
     36 HAK         -2.2200     3.1140    -0.4000 h1         1 507       0.048450
     37 HAKA        -2.9760     3.2210    -1.9910 h1         1 507       0.048450
     38 HAL         -4.7320     0.9020     1.9010 hc         1 507       0.058950
     39 HALA        -5.4640     0.9020     0.2970 hc         1 507       0.058950
     40 HAM         -3.8380     0.9200    -1.7930 hc         1 507       0.058950
     41 HAMA        -2.1000     0.9320    -1.4940 hc         1 507       0.058950
     42 HAX         -2.4860     0.9030     0.9410 h1         1 507       0.074700
     43 NAP         -3.4160    -0.8020     0.2550 nu         1 507      -0.870900
     44 HAJ         -5.4470     3.1930     1.2000 h1         1 507       0.048450
     45 HNAP        -4.3180    -1.2010     0.0510 hn         1 507       0.436800
@<TRIPOS>BOND
     1     1    17 1   
     2     1    25 1   
     3     1    26 1   
     4     1    27 1   
     5     2    17 2   
     6     3     4 ar  
     7     3     5 ar  
     8     3    28 1   
     9     4    18 ar  
    10     4    29 1   
    11     5    19 ar  
    12     5    30 1   
    13     6     7 2   
    14     6    20 1   
    15     6    31 1   
    16     7    22 1   
    17     7    32 1   
    18     8    14 1   
    19     8    21 2   
    20     8    33 1   
    21     9    18 ar  
    22     9    19 ar  
    23     9    34 1   
    24    10    12 1   
    25    10    16 1   
    26    10    35 1   
    27    10    44 1   
    28    11    13 1   
    29    11    16 1   
    30    11    36 1   
    31    11    37 1   
    32    12    23 1   
    33    12    38 1   
    34    12    39 1   
    35    13    23 1   
    36    13    40 1   
    37    13    41 1   
    38    14    22 2   
    39    15    20 2   
    40    15    24 1   
    41    17    18 1   
    42    19    21 1   
    43    20    43 1   
    44    21    24 1   
    45    22    24 1   
    46    23    42 1   
    47    23    43 1   
    48    43    45 1   
@<TRIPOS>SUBSTRUCTURE
     1 507         1 TEMP              0 ****  ****    0 ROOT
