@<TRIPOS>MOLECULE
508
   68    73     1     0     0
SMALL
bcc


@<TRIPOS>ATOM
      1 C           -3.1870     0.0040    -0.0620 c5         1 508      -0.025700
      2 C1          -4.4980     0.6810    -0.5710 c5         1 508       0.141800
      3 N           -4.1550     2.0220    -0.9900 n7         1 508      -0.767200
      4 C2          -2.8950     1.8360    -1.6830 c5         1 508       0.149800
      5 C3          -2.0950     0.7470    -0.9240 c5         1 508      -0.176700
      6 C4          -0.9720     1.3770    -0.1150 c          1 508       0.661100
      7 O           -1.0970     2.4930     0.3600 o          1 508      -0.581100
      8 N5           0.2050     0.6790    -0.0170 n          1 508      -0.460800
      9 C6           0.1410    -0.7760     0.1280 c6         1 508       0.089000
     10 C7           1.4510    -1.4710    -0.1780 c6         1 508      -0.078400
     11 C8           2.5560    -0.9060     0.7030 c6         1 508      -0.016400
     12 C9           2.6410     0.5910     0.4260 c6         1 508      -0.079400
     13 C10          1.3240     1.3470     0.6540 c6         1 508       0.152000
     14 C11          3.8890    -1.5790     0.5040 ca         1 508      -0.075300
     15 C12          4.5960    -2.0790     1.5950 ca         1 508      -0.123000
     16 C13          5.8370    -2.6830     1.4290 ca         1 508      -0.127500
     17 C14          6.3910    -2.7970     0.1620 ca         1 508      -0.127000
     18 C15          5.6970    -2.3010    -0.9350 ca         1 508      -0.127500
     19 C16          4.4590    -1.6970    -0.7630 ca         1 508      -0.123000
     20 C17         -3.0410     0.3020     1.4400 c6         1 508      -0.072400
     21 C18         -3.9170    -0.6020     2.2900 c6         1 508      -0.074400
     22 C19         -3.4580    -2.0400     2.1300 c6         1 508      -0.034100
     23 C20         -3.3630    -2.4400     0.6830 ca         1 508      -0.067300
     24 C21         -3.2290    -1.4920    -0.3360 ca         1 508      -0.067300
     25 C22         -3.4180    -3.7960     0.3540 ca         1 508      -0.131000
     26 C23         -3.3540    -4.2290    -0.9580 ca         1 508      -0.124000
     27 C24         -3.2460    -3.2900    -1.9760 ca         1 508      -0.131000
     28 C25         -3.1900    -1.9440    -1.6590 ca         1 508      -0.131000
     29 C26          1.5510     2.7560     0.1560 ca         1 508      -0.068300
     30 C27          1.8660     3.7670     1.0560 ca         1 508      -0.113500
     31 C28          2.1790     5.0440     0.6100 ca         1 508      -0.128000
     32 C29          2.1790     5.3270    -0.7490 ca         1 508      -0.126000
     33 C30          1.8740     4.3190    -1.6550 ca         1 508      -0.128000
     34 C31          1.5710     3.0420    -1.2060 ca         1 508      -0.113500
     35 H1          -4.8860     0.1330    -1.4340 h1         1 508       0.060700
     36 H2          -5.2820     0.6860     0.1880 h1         1 508       0.060700
     37 H3          -3.9990     2.6000    -0.1710 hn         1 508       0.360800
     38 H5          -3.1060     1.4630    -2.6890 h1         1 508       0.063700
     39 H6          -2.3610     2.7780    -1.7940 h1         1 508       0.063700
     40 H7          -1.6510     0.0680    -1.6490 hc         1 508       0.076700
     41 H8          -0.1560    -1.0280     1.1550 h1         1 508       0.046700
     42 H9          -0.6340    -1.1740    -0.5210 h1         1 508       0.046700
     43 H10          1.3180    -2.5400    -0.0010 hc         1 508       0.054200
     44 H11          1.6980    -1.3460    -1.2360 hc         1 508       0.054200
     45 H12          2.2590    -1.0490     1.7490 hc         1 508       0.051700
     46 H13          3.4000     1.0580     1.0580 hc         1 508       0.056700
     47 H14          2.9650     0.7410    -0.6080 hc         1 508       0.056700
     48 H15          1.1320     1.3830     1.7360 h1         1 508       0.046700
     49 H16          4.1710    -1.9930     2.5880 ha         1 508       0.128500
     50 H17          6.3680    -3.0640     2.2920 ha         1 508       0.130000
     51 H18          7.3550    -3.2700     0.0270 ha         1 508       0.131000
     52 H19          6.1200    -2.3850    -1.9270 ha         1 508       0.130000
     53 H20          3.9350    -1.3150    -1.6320 ha         1 508       0.128500
     54 H21         -2.0080     0.1590     1.7740 hc         1 508       0.050200
     55 H22         -3.2730     1.3530     1.6250 hc         1 508       0.050200
     56 H23         -3.8570    -0.3020     3.3380 hc         1 508       0.046700
     57 H24         -4.9680    -0.5110     1.9990 hc         1 508       0.046700
     58 H25         -2.4770    -2.1600     2.6040 hc         1 508       0.048700
     59 H26         -4.1300    -2.7230     2.6540 hc         1 508       0.048700
     60 H27         -3.5170    -4.5220     1.1520 ha         1 508       0.129000
     61 H28         -3.3990    -5.2860    -1.1860 ha         1 508       0.133000
     62 H29         -3.2090    -3.6020    -3.0120 ha         1 508       0.132000
     63 H30         -3.1110    -1.2290    -2.4700 ha         1 508       0.130000
     64 H31          1.8600     3.5560     2.1200 ha         1 508       0.129500
     65 H32          2.4170     5.8200     1.3270 ha         1 508       0.127500
     66 H33          2.4200     6.3230    -1.0990 ha         1 508       0.128000
     67 H34          1.8760     4.5270    -2.7180 ha         1 508       0.127500
     68 H35          1.3360     2.2650    -1.9240 ha         1 508       0.129500
@<TRIPOS>BOND
     1     1     2 1   
     2     1     5 1   
     3     1    20 1   
     4     1    24 1   
     5     2     3 1   
     6     2    35 1   
     7     2    36 1   
     8     3     4 1   
     9     3    37 1   
    10     4     5 1   
    11     4    38 1   
    12     4    39 1   
    13     5     6 1   
    14     5    40 1   
    15     6     7 2   
    16     6     8 1   
    17     8     9 1   
    18     8    13 1   
    19     9    10 1   
    20     9    41 1   
    21     9    42 1   
    22    10    11 1   
    23    10    43 1   
    24    10    44 1   
    25    11    12 1   
    26    11    14 1   
    27    11    45 1   
    28    12    13 1   
    29    12    46 1   
    30    12    47 1   
    31    13    29 1   
    32    13    48 1   
    33    14    15 ar  
    34    14    19 ar  
    35    15    16 ar  
    36    15    49 1   
    37    16    17 ar  
    38    16    50 1   
    39    17    18 ar  
    40    17    51 1   
    41    18    19 ar  
    42    18    52 1   
    43    19    53 1   
    44    20    21 1   
    45    20    54 1   
    46    20    55 1   
    47    21    22 1   
    48    21    56 1   
    49    21    57 1   
    50    22    23 1   
    51    22    58 1   
    52    22    59 1   
    53    23    24 ar  
    54    23    25 ar  
    55    24    28 ar  
    56    25    26 ar  
    57    25    60 1   
    58    26    27 ar  
    59    26    61 1   
    60    27    28 ar  
    61    27    62 1   
    62    28    63 1   
    63    29    30 ar  
    64    29    34 ar  
    65    30    31 ar  
    66    30    64 1   
    67    31    32 ar  
    68    31    65 1   
    69    32    33 ar  
    70    32    66 1   
    71    33    34 ar  
    72    33    67 1   
    73    34    68 1   
@<TRIPOS>SUBSTRUCTURE
     1 508         1 TEMP              0 ****  ****    0 ROOT
