@<TRIPOS>MOLECULE
508
   68    73     1     0     0
SMALL
No Charge or Current Charge


@<TRIPOS>ATOM
      1 C           -3.1950     0.0070     0.1080 c5         1 508      -0.025700
      2 C1          -4.3880     0.8910    -0.4040 c5         1 508       0.141800
      3 N           -3.7610     2.1890    -0.7240 n7         1 508      -0.822400
      4 C2          -2.5770     1.7910    -1.5030 c5         1 508       0.149800
      5 C3          -1.9460     0.6600    -0.6440 c5         1 508      -0.176700
      6 C4          -0.9220     1.3240     0.3260 c          1 508       0.594100
      7 O           -1.1190     2.3270     1.0040 o          1 508      -0.581100
      8 N5           0.3280     0.6610     0.2780 n          1 508      -0.393800
      9 C6           0.3610    -0.7860     0.6650 c6         1 508       0.089000
     10 C7           1.6780    -1.5130     0.3280 c6         1 508      -0.078400
     11 C8           2.8820    -0.7680     0.9350 c6         1 508      -0.016400
     12 C9           2.8870     0.6670     0.3730 c6         1 508      -0.079400
     13 C10          1.5620     1.4240     0.6610 c6         1 508       0.152000
     14 C11          4.2100    -1.4980     0.6770 ca         1 508      -0.075300
     15 C12          4.9970    -1.9300     1.7640 ca         1 508      -0.105000
     16 C13          6.2130    -2.5980     1.5420 ca         1 508      -0.109500
     17 C14          6.6550    -2.8390     0.2310 ca         1 508      -0.109000
     18 C15          5.8780    -2.4120    -0.8580 ca         1 508      -0.109500
     19 C16          4.6620    -1.7440    -0.6370 ca         1 508      -0.105000
     20 C17         -3.0960    -0.0170     1.6700 c6         1 508      -0.072400
     21 C18         -4.1720    -0.9110     2.3080 c6         1 508      -0.074400
     22 C19         -3.9550    -2.3660     1.8650 c6         1 508      -0.034100
     23 C20         -3.8040    -2.5130     0.3480 ca         1 508      -0.067300
     24 C21         -3.4520    -1.4130    -0.4850 ca         1 508      -0.067300
     25 C22         -4.0270    -3.7890    -0.2080 ca         1 508      -0.113000
     26 C23         -3.9300    -3.9950    -1.5900 ca         1 508      -0.106000
     27 C24         -3.6160    -2.9200    -2.4280 ca         1 508      -0.113000
     28 C25         -3.3860    -1.6470    -1.8840 ca         1 508      -0.113000
     29 C26          1.6220     2.7990    -0.0240 ca         1 508      -0.068300
     30 C27          1.8440     3.9630     0.7390 ca         1 508      -0.095500
     31 C28          1.9000     5.2210     0.1140 ca         1 508      -0.110000
     32 C29          1.7340     5.3250    -1.2770 ca         1 508      -0.108000
     33 C30          1.5140     4.1690    -2.0450 ca         1 508      -0.110000
     34 C31          1.4600     2.9110    -1.4210 ca         1 508      -0.095500
     35 H1          -4.8570     0.4700    -1.3050 h1         1 508       0.060700
     36 H2          -5.1830     1.0010     0.3470 h1         1 508       0.060700
     37 H3          -3.4230     2.6050     0.1530 hn         1 508       0.416000
     38 H5          -2.8760     1.4190    -2.4940 h1         1 508       0.063700
     39 H6          -1.8860     2.6320    -1.6670 h1         1 508       0.063700
     40 H7          -1.4110    -0.0580    -1.2720 hc         1 508       0.076700
     41 H8           0.1990    -0.8500     1.7510 h1         1 508       0.046700
     42 H9          -0.4650    -1.3360     0.1950 h1         1 508       0.046700
     43 H10          1.6390    -2.5410     0.7140 hc         1 508       0.054200
     44 H11          1.7800    -1.5900    -0.7630 hc         1 508       0.054200
     45 H12          2.7260    -0.7030     2.0210 hc         1 508       0.051700
     46 H13          3.7280     1.2290     0.8030 hc         1 508       0.056700
     47 H14          3.0610     0.6390    -0.7110 hc         1 508       0.056700
     48 H15          1.5090     1.5880     1.7480 h1         1 508       0.046700
     49 H16          4.6670    -1.7500     2.7850 ha         1 508       0.110500
     50 H17          6.8140    -2.9290     2.3870 ha         1 508       0.112000
     51 H18          7.5970    -3.3560     0.0590 ha         1 508       0.113000
     52 H19          6.2190    -2.5970    -1.8750 ha         1 508       0.112000
     53 H20          4.0730    -1.4190    -1.4910 ha         1 508       0.110500
     54 H21         -2.1140    -0.3910     1.9870 hc         1 508       0.050200
     55 H22         -3.1870     1.0000     2.0730 hc         1 508       0.050200
     56 H23         -4.1200    -0.8430     3.4030 hc         1 508       0.046700
     57 H24         -5.1770    -0.5740     2.0200 hc         1 508       0.046700
     58 H25         -3.0540    -2.7660     2.3510 hc         1 508       0.048700
     59 H26         -4.7930    -2.9800     2.2220 hc         1 508       0.048700
     60 H27         -4.2830    -4.6260     0.4380 ha         1 508       0.111000
     61 H28         -4.1070    -4.9830    -2.0090 ha         1 508       0.115000
     62 H29         -3.5530    -3.0710    -3.5040 ha         1 508       0.114000
     63 H30         -3.1600    -0.8370    -2.5710 ha         1 508       0.112000
     64 H31          1.9710     3.8940     1.8170 ha         1 508       0.111500
     65 H32          2.0700     6.1160     0.7090 ha         1 508       0.109500
     66 H33          1.7770     6.2990    -1.7600 ha         1 508       0.110000
     67 H34          1.3870     4.2480    -3.1220 ha         1 508       0.109500
     68 H35          1.2890     2.0210    -2.0230 ha         1 508       0.111500
@<TRIPOS>BOND
     1     1     2 1   
     2     1     5 1   
     3     1    20 1   
     4     1    24 1   
     5     2     3 1   
     6     2    35 1   
     7     2    36 1   
     8     3     4 1   
     9     3    37 1   
    10     4     5 1   
    11     4    38 1   
    12     4    39 1   
    13     5     6 1   
    14     5    40 1   
    15     6     7 2   
    16     6     8 1   
    17     8     9 1   
    18     8    13 1   
    19     9    10 1   
    20     9    41 1   
    21     9    42 1   
    22    10    11 1   
    23    10    43 1   
    24    10    44 1   
    25    11    12 1   
    26    11    14 1   
    27    11    45 1   
    28    12    13 1   
    29    12    46 1   
    30    12    47 1   
    31    13    29 1   
    32    13    48 1   
    33    14    15 ar  
    34    14    19 ar  
    35    15    16 ar  
    36    15    49 1   
    37    16    17 ar  
    38    16    50 1   
    39    17    18 ar  
    40    17    51 1   
    41    18    19 ar  
    42    18    52 1   
    43    19    53 1   
    44    20    21 1   
    45    20    54 1   
    46    20    55 1   
    47    21    22 1   
    48    21    56 1   
    49    21    57 1   
    50    22    23 1   
    51    22    58 1   
    52    22    59 1   
    53    23    24 ar  
    54    23    25 ar  
    55    24    28 ar  
    56    25    26 ar  
    57    25    60 1   
    58    26    27 ar  
    59    26    61 1   
    60    27    28 ar  
    61    27    62 1   
    62    28    63 1   
    63    29    30 ar  
    64    29    34 ar  
    65    30    31 ar  
    66    30    64 1   
    67    31    32 ar  
    68    31    65 1   
    69    32    33 ar  
    70    32    66 1   
    71    33    34 ar  
    72    33    67 1   
    73    34    68 1   
@<TRIPOS>SUBSTRUCTURE
     1 508         1 TEMP              0 ****  ****    0 ROOT
