@<TRIPOS>MOLECULE
509
   27    28     1     0     0
SMALL
abcg2


@<TRIPOS>ATOM
      1 C1          -5.5190    -0.1120    -0.3790 ca         1 509      -0.145000
      2 C2          -5.0340     0.9370     0.3910 ca         1 509      -0.123500
      3 C3          -3.6670     1.1560     0.4890 ca         1 509      -0.104000
      4 C4          -2.7660     0.3300    -0.1850 ca         1 509       0.054000
      5 C5          -3.2630    -0.7150    -0.9670 ca         1 509      -0.104000
      6 C6          -4.6290    -0.9350    -1.0570 ca         1 509      -0.123500
      7 C7          -1.3260     0.5860    -0.0940 cc         1 509      -0.259000
      8 C8          -0.2900    -0.2640     0.1730 cd         1 509      -0.031900
      9 C9           0.9940     0.3630     0.1970 cd         1 509       0.108100
     10 C10          0.9140     1.7020    -0.0740 cc         1 509      -0.240600
     11 S1          -0.7160     2.1790    -0.3370 ss         1 509       0.220000
     12 C11          1.9540     2.7870    -0.1610 c          1 509       0.734600
     13 O1           3.1400     2.4650     0.0140 o          1 509      -0.703000
     14 O2           1.4890     3.9180    -0.4050 o          1 509      -0.703000
     15 O3           2.1070    -0.3300     0.4840 os         1 509      -0.290100
     16 C12          2.8580    -0.7340    -0.6590 c3         1 509       0.025600
     17 C13          4.0690    -1.5830    -0.2530 c          1 509       0.733000
     18 O4           4.2720    -1.7850     0.9530 o          1 509      -0.741000
     19 O5           4.7440    -1.9850    -1.2220 o          1 509      -0.741000
     20 BR1         -0.4730    -2.0800     0.5890 br         1 509      -0.116100
     21 H1          -6.5840    -0.2860    -0.4530 ha         1 509       0.086000
     22 H2          -5.7180     1.5830     0.9240 ha         1 509       0.091500
     23 H3          -3.2980     1.9680     1.1030 ha         1 509       0.124000
     24 H5          -2.5830    -1.3430    -1.5260 ha         1 509       0.124000
     25 H6          -5.0000    -1.7480    -1.6680 ha         1 509       0.091500
     26 H121         3.2030     0.1490    -1.2040 h1         1 509       0.018700
     27 H122         2.2230    -1.3140    -1.3400 h1         1 509       0.018700
@<TRIPOS>BOND
     1     1     2 ar  
     2     1     6 ar  
     3     1    21 1   
     4     2     3 ar  
     5     2    22 1   
     6     3     4 ar  
     7     3    23 1   
     8     4     5 ar  
     9     4     7 1   
    10     5     6 ar  
    11     5    24 1   
    12     6    25 1   
    13     7     8 2   
    14     7    11 1   
    15     8     9 1   
    16     8    20 1   
    17     9    10 2   
    18     9    15 1   
    19    10    11 1   
    20    10    12 1   
    21    12    13 1   
    22    12    14 1   
    23    15    16 1   
    24    16    17 1   
    25    16    26 1   
    26    16    27 1   
    27    17    18 1   
    28    17    19 1   
@<TRIPOS>SUBSTRUCTURE
     1 509         1 TEMP              0 ****  ****    0 ROOT
