@<TRIPOS>MOLECULE
509
   27    28     1     0     0
SMALL
No Charge or Current Charge


@<TRIPOS>ATOM
      1 C1          -5.4290    -0.3090    -0.3420 ca         1 509      -0.145000
      2 C2          -4.9960     0.6680     0.5690 ca         1 509      -0.123500
      3 C3          -3.6410     1.0420     0.6070 ca         1 509      -0.104000
      4 C4          -2.7090     0.4360    -0.2570 ca         1 509       0.054000
      5 C5          -3.1540    -0.5350    -1.1760 ca         1 509      -0.104000
      6 C6          -4.5080    -0.9100    -1.2160 ca         1 509      -0.123500
      7 C7          -1.3080     0.8450    -0.2200 cc         1 509      -0.259000
      8 C8          -0.2860    -0.0410     0.0370 cd         1 509      -0.031900
      9 C9           0.9770     0.6380     0.0770 cd         1 509       0.108100
     10 C10          0.9120     2.0050    -0.0920 cc         1 509      -0.240600
     11 S1          -0.7530     2.5100    -0.3510 ss         1 509       0.220000
     12 C11          2.0260     2.9820    -0.0860 c          1 509       0.734600
     13 O1           3.1770     2.6070     0.0820 o          1 509      -0.703000
     14 O2           1.7490     4.1600    -0.2570 o          1 509      -0.703000
     15 O3           2.1640    -0.0030     0.3160 os         1 509      -0.290100
     16 C12          2.6370    -1.0010    -0.6230 c3         1 509       0.025600
     17 C13          3.9540    -1.7050    -0.1690 c          1 509       0.733000
     18 O4           4.4380    -1.4470     0.9280 o          1 509      -0.741000
     19 O5           4.4590    -2.5120    -0.9390 o          1 509      -0.741000
     20 Br1         -0.5420    -1.8830     0.4260 br         1 509      -0.116100
     21 H1          -6.4770    -0.5980    -0.3730 ha         1 509       0.086000
     22 H2          -5.7080     1.1370     1.2440 ha         1 509       0.091500
     23 H3          -3.3110     1.7990     1.3150 ha         1 509       0.124000
     24 H5          -2.4470    -0.9950    -1.8620 ha         1 509       0.124000
     25 H6          -4.8430    -1.6630    -1.9260 ha         1 509       0.091500
     26 H121         2.8290    -0.5310    -1.5960 h1         1 509       0.018700
     27 H122         1.8920    -1.7860    -0.7830 h1         1 509       0.018700
@<TRIPOS>BOND
     1     1     2 ar  
     2     1     6 ar  
     3     1    21 1   
     4     2     3 ar  
     5     2    22 1   
     6     3     4 ar  
     7     3    23 1   
     8     4     5 ar  
     9     4     7 1   
    10     5     6 ar  
    11     5    24 1   
    12     6    25 1   
    13     7     8 2   
    14     7    11 1   
    15     8     9 1   
    16     8    20 1   
    17     9    10 2   
    18     9    15 1   
    19    10    11 1   
    20    10    12 1   
    21    12    13 1   
    22    12    14 1   
    23    15    16 1   
    24    16    17 1   
    25    16    26 1   
    26    16    27 1   
    27    17    18 1   
    28    17    19 1   
@<TRIPOS>SUBSTRUCTURE
     1 509         1 TEMP              0 ****  ****    0 ROOT
