@<TRIPOS>MOLECULE
50B
   75    81     1     0     0
SMALL
No Charge or Current Charge


@<TRIPOS>ATOM
      1 O2          -2.3760    -4.7260    -0.4260 os         1 50B      -0.326100
      2 C2          -1.3950    -3.8000    -0.5730 ca         1 50B       0.099100
      3 C3          -1.1090    -3.1500     0.5900 ca         1 50B       0.059100
      4 C4          -0.6840    -3.5400    -1.7470 ca         1 50B      -0.086000
      5 C5           0.3420    -2.5700    -1.7040 ca         1 50B      -0.061300
      6 C6           0.6280    -1.8510    -0.5080 ca         1 50B      -0.085000
      7 C1          -2.7710    -4.5540     0.9810 c5         1 50B       0.369600
      8 O1          -1.8670    -3.5880     1.6270 os         1 50B      -0.330100
      9 C19          7.7420     1.2320    -0.8810 c3         1 50B       0.141900
     10 C18          5.3760     1.1510    -0.0210 ca         1 50B       0.092100
     11 C13          4.1050     0.5420    -0.2030 ca         1 50B      -0.079000
     12 C12          2.9960     0.8800     0.6090 ca         1 50B      -0.007000
     13 C15          3.1970     1.8330     1.6360 ca         1 50B      -0.073000
     14 C16          4.4440     2.4430     1.8280 ca         1 50B      -0.117000
     15 C17          5.5460     2.1230     1.0100 ca         1 50B       0.150100
     16 C20          7.0000     3.7270     2.2370 c3         1 50B       0.136900
     17 C11          1.7340     0.2350     0.4030 ca         1 50B      -0.011300
     18 C10          1.6690    -0.8690    -0.5120 ca         1 50B       0.013700
     19 N1           2.7040    -1.0110    -1.4580 na         1 50B       0.066300
     20 C14          3.9290    -0.4000    -1.2320 ca         1 50B      -0.009000
     21 C7          -0.1020    -2.1820     0.6670 ca         1 50B      -0.063000
     22 C8           1.1280    -2.2400    -2.9620 c6         1 50B      -0.053100
     23 C9           2.5930    -1.9530    -2.5980 c6         1 50B       0.034600
     24 C21          0.4470     0.8490     1.0250 c3         1 50B      -0.047100
     25 C22         -0.7440     0.9900     0.0370 c3         1 50B      -0.076400
     26 C23         -1.9890     1.6630     0.6620 c3         1 50B      -0.068400
     27 C24         -3.1970     1.7310    -0.3120 c3         1 50B       0.036900
     28 C25         -3.6970     0.3280    -0.6720 ca         1 50B      -0.081800
     29 C26         -3.4170    -0.2230    -1.9400 ca         1 50B      -0.105750
     30 C27         -3.8530    -1.5200    -2.2650 ca         1 50B      -0.108000
     31 C28         -4.5780    -2.2730    -1.3280 ca         1 50B      -0.104000
     32 C29         -4.8620    -1.7320    -0.0630 ca         1 50B      -0.108000
     33 C30         -4.4190    -0.4400     0.2650 ca         1 50B      -0.105750
     34 C31         -4.3570     2.6140     0.1740 ca         1 50B      -0.081800
     35 C32         -5.2210     3.1830    -0.7850 ca         1 50B      -0.105750
     36 C33         -6.3010     3.9910    -0.3900 ca         1 50B      -0.108000
     37 C34         -6.5330     4.2370     0.9720 ca         1 50B      -0.104000
     38 C35         -5.6850     3.6720     1.9380 ca         1 50B      -0.108000
     39 C36         -4.6040     2.8630     1.5440 ca         1 50B      -0.105750
     40 H1          -0.9180    -4.0800    -2.6610 ha         1 50B       0.153000
     41 H2          -3.7960    -4.1690     1.0220 h2         1 50B       0.084700
     42 H3           8.2310     1.0160     0.0780 h1         1 50B       0.051367
     43 H4           8.3250     0.7430    -1.6700 h1         1 50B       0.051367
     44 H5           7.7710     2.3130    -1.0660 h1         1 50B       0.051367
     45 H6           2.4140     2.0920     2.3410 ha         1 50B       0.145000
     46 H7           4.5330     3.1620     2.6380 ha         1 50B       0.145000
     47 H8           6.8140     3.3100     3.2350 h1         1 50B       0.059367
     48 H9           8.0400     4.0730     2.2050 h1         1 50B       0.059367
     49 H10          6.3490     4.5990     2.0910 h1         1 50B       0.059367
     50 H11          4.7460    -0.6870    -1.8950 h4         1 50B       0.182000
     51 H12          0.1350    -1.7550     1.6330 ha         1 50B       0.147000
     52 H13          1.0770    -3.0620    -3.6900 hc         1 50B       0.090200
     53 H14          0.6840    -1.3600    -3.4470 hc         1 50B       0.090200
     54 H15          3.1190    -1.5430    -3.4720 h1         1 50B       0.094700
     55 H16          3.0900    -2.8920    -2.3170 h1         1 50B       0.094700
     56 H17          0.1400     0.3290     1.9370 hc         1 50B       0.068700
     57 H18          0.6250     1.8800     1.3420 hc         1 50B       0.068700
     58 H19         -0.4160     1.5770    -0.8290 hc         1 50B       0.051200
     59 H20         -1.0490     0.0170    -0.3500 hc         1 50B       0.051200
     60 H21         -2.2730     1.1070     1.5640 hc         1 50B       0.049700
     61 H22         -1.7230     2.6800     0.9780 hc         1 50B       0.049700
     62 H23         -2.8120     2.2030    -1.2250 hc         1 50B       0.054700
     63 H24         -2.8530     0.3490    -2.6730 ha         1 50B       0.108250
     64 H25         -3.6270    -1.9390    -3.2420 ha         1 50B       0.116500
     65 H26         -4.9160    -3.2760    -1.5810 ha         1 50B       0.119000
     66 H27         -5.4240    -2.3130     0.6640 ha         1 50B       0.116500
     67 H28         -4.6380    -0.0350     1.2500 ha         1 50B       0.108250
     68 H29         -5.0550     2.9950    -1.8440 ha         1 50B       0.108250
     69 H30         -6.9580     4.4250    -1.1410 ha         1 50B       0.116500
     70 H31         -7.3690     4.8620     1.2790 ha         1 50B       0.119000
     71 H32         -5.8660     3.8580     2.9940 ha         1 50B       0.116500
     72 H33         -3.9720     2.4320     2.3140 ha         1 50B       0.108250
     73 H34         -2.7140    -5.5180     1.5010 h2         1 50B       0.084700
     74 O3           6.3870     0.7430    -0.8910 os         1 50B      -0.346100
     75 O4           6.7720     2.7380     1.2160 os         1 50B      -0.311100
@<TRIPOS>BOND
     1     1     2 1   
     2     1     7 1   
     3     2     3 ar  
     4     2     4 ar  
     5     3     8 1   
     6     3    21 ar  
     7     4     5 ar  
     8     4    40 1   
     9     5     6 ar  
    10     5    22 1   
    11     6    18 1   
    12     6    21 ar  
    13     7     8 1   
    14     7    41 1   
    15     7    73 1   
    16     9    42 1   
    17     9    43 1   
    18     9    44 1   
    19     9    74 1   
    20    10    11 ar  
    21    10    15 ar  
    22    10    74 1   
    23    11    12 ar  
    24    11    20 ar  
    25    12    13 ar  
    26    12    17 ar  
    27    13    14 ar  
    28    13    45 1   
    29    14    15 ar  
    30    14    46 1   
    31    15    75 1   
    32    16    47 1   
    33    16    48 1   
    34    16    49 1   
    35    16    75 1   
    36    17    18 ar  
    37    17    24 1   
    38    18    19 2   
    39    19    20 1   
    40    19    23 1   
    41    20    50 1   
    42    21    51 1   
    43    22    23 1   
    44    22    52 1   
    45    22    53 1   
    46    23    54 1   
    47    23    55 1   
    48    24    25 1   
    49    24    56 1   
    50    24    57 1   
    51    25    26 1   
    52    25    58 1   
    53    25    59 1   
    54    26    27 1   
    55    26    60 1   
    56    26    61 1   
    57    27    28 1   
    58    27    34 1   
    59    27    62 1   
    60    28    29 ar  
    61    28    33 ar  
    62    29    30 ar  
    63    29    63 1   
    64    30    31 ar  
    65    30    64 1   
    66    31    32 ar  
    67    31    65 1   
    68    32    33 ar  
    69    32    66 1   
    70    33    67 1   
    71    34    35 ar  
    72    34    39 ar  
    73    35    36 ar  
    74    35    68 1   
    75    36    37 ar  
    76    36    69 1   
    77    37    38 ar  
    78    37    70 1   
    79    38    39 ar  
    80    38    71 1   
    81    39    72 1   
@<TRIPOS>SUBSTRUCTURE
     1 50B         1 TEMP              0 ****  ****    0 ROOT
