@<TRIPOS>MOLECULE
50B
   75    81     1     0     0
SMALL
abcg2


@<TRIPOS>ATOM
      1 O2          -2.7510    -4.5500     0.1300 os         1 50B      -0.326100
      2 C2          -1.6250    -3.8200     0.0030 ca         1 50B       0.099100
      3 C3          -1.3470    -3.1860     1.2040 ca         1 50B       0.059100
      4 C4          -0.8040    -3.6910    -1.0880 ca         1 50B      -0.086000
      5 C5           0.3040    -2.8520    -0.9550 ca         1 50B      -0.061300
      6 C6           0.5490    -2.1520     0.2290 ca         1 50B      -0.085000
      7 C1          -3.0870    -4.5310     1.5150 c5         1 50B       0.369600
      8 O1          -2.2890    -3.5210     2.1170 os         1 50B      -0.330100
      9 C19          6.6030     1.0310    -1.7800 c3         1 50B       0.141900
     10 C18          5.2370     1.0340     0.1340 ca         1 50B       0.092100
     11 C13          4.0220     0.3170     0.1740 ca         1 50B      -0.079000
     12 C12          2.8760     0.8150     0.8470 ca         1 50B      -0.007000
     13 C15          2.9980     2.0810     1.4510 ca         1 50B      -0.073000
     14 C16          4.1790     2.7750     1.4080 ca         1 50B      -0.117000
     15 C17          5.3210     2.2670     0.7560 ca         1 50B       0.150100
     16 C20          6.6280     4.1710     1.3080 c3         1 50B       0.136900
     17 C11          1.6870     0.0300     0.8690 ca         1 50B      -0.011300
     18 C10          1.6840    -1.2100     0.2590 ca         1 50B       0.013700
     19 N1           2.7950    -1.5930    -0.4680 na         1 50B       0.066300
     20 C14          3.9060    -0.8950    -0.5060 ca         1 50B      -0.009000
     21 C7          -0.2640    -2.3650     1.3580 ca         1 50B      -0.063000
     22 C8           1.3550    -2.7750    -2.0200 c6         1 50B      -0.053100
     23 C9           2.6950    -2.7960    -1.3170 c6         1 50B       0.034600
     24 C21          0.4140     0.6240     1.4140 c3         1 50B      -0.047100
     25 C22         -0.5100     1.0680     0.2780 c3         1 50B      -0.076400
     26 C23         -1.8630     1.5200     0.8050 c3         1 50B      -0.068400
     27 C24         -2.8300     1.9500    -0.3020 c3         1 50B       0.036900
     28 C25         -3.1710     0.8530    -1.2920 ca         1 50B      -0.081800
     29 C26         -3.4050     1.1920    -2.6230 ca         1 50B      -0.105750
     30 C27         -3.7690     0.2310    -3.5560 ca         1 50B      -0.108000
     31 C28         -3.9060    -1.0960    -3.1710 ca         1 50B      -0.104000
     32 C29         -3.6690    -1.4480    -1.8500 ca         1 50B      -0.108000
     33 C30         -3.3030    -0.4830    -0.9210 ca         1 50B      -0.105750
     34 C31         -4.0970     2.5420     0.2820 ca         1 50B      -0.081800
     35 C32         -4.4220     3.8740     0.0460 ca         1 50B      -0.105750
     36 C33         -5.5760     4.4360     0.5810 ca         1 50B      -0.108000
     37 C34         -6.4240     3.6670     1.3640 ca         1 50B      -0.104000
     38 C35         -6.1100     2.3340     1.6060 ca         1 50B      -0.108000
     39 C36         -4.9590     1.7780     1.0680 ca         1 50B      -0.105750
     40 H1          -0.9870    -4.2320    -2.0070 ha         1 50B       0.153000
     41 H2          -4.1430    -4.2890     1.6340 h2         1 50B       0.084700
     42 H3           6.9160     2.0730    -1.7150 h1         1 50B       0.051367
     43 H4           7.4210     0.4390    -2.1820 h1         1 50B       0.051367
     44 H5           5.7450     0.9550    -2.4510 h1         1 50B       0.051367
     45 H6           2.1710     2.5310     1.9760 ha         1 50B       0.145000
     46 H7           4.2210     3.7360     1.9010 ha         1 50B       0.145000
     47 H8           6.4480     4.1300     2.3840 h1         1 50B       0.059367
     48 H9           7.6530     4.4840     1.1350 h1         1 50B       0.059367
     49 H10          5.9540     4.9040     0.8590 h1         1 50B       0.059367
     50 H11          4.7120    -1.2960    -1.1030 h4         1 50B       0.182000
     51 H12         -0.0330    -1.9400     2.3230 ha         1 50B       0.147000
     52 H13          1.2920    -3.6330    -2.6890 hc         1 50B       0.090200
     53 H14          1.2650    -1.8750    -2.6360 hc         1 50B       0.090200
     54 H15          3.5260    -2.7760    -2.0150 h1         1 50B       0.094700
     55 H16          2.7880    -3.6770    -0.6800 h1         1 50B       0.094700
     56 H17         -0.1150    -0.0730     2.0540 hc         1 50B       0.068700
     57 H18          0.6270     1.4740     2.0590 hc         1 50B       0.068700
     58 H19         -0.0370     1.8820    -0.2800 hc         1 50B       0.051200
     59 H20         -0.6430     0.2490    -0.4320 hc         1 50B       0.051200
     60 H21         -2.3080     0.7210     1.4070 hc         1 50B       0.049700
     61 H22         -1.7270     2.3630     1.4880 hc         1 50B       0.049700
     62 H23         -2.3390     2.7480    -0.8690 hc         1 50B       0.054700
     63 H24         -3.3030     2.2260    -2.9360 ha         1 50B       0.108250
     64 H25         -3.9440     0.5190    -4.5850 ha         1 50B       0.116500
     65 H26         -4.1890    -1.8490    -3.8950 ha         1 50B       0.119000
     66 H27         -3.7700    -2.4810    -1.5400 ha         1 50B       0.116500
     67 H28         -3.1120    -0.7900     0.1010 ha         1 50B       0.108250
     68 H29         -3.7650     4.4810    -0.5660 ha         1 50B       0.108250
     69 H30         -5.8100     5.4740     0.3830 ha         1 50B       0.116500
     70 H31         -7.3240     4.0990     1.7830 ha         1 50B       0.119000
     71 H32         -6.7660     1.7250     2.2150 ha         1 50B       0.116500
     72 H33         -4.7370     0.7360     1.2630 ha         1 50B       0.108250
     73 H34         -2.8600    -5.5040     1.9620 h2         1 50B       0.084700
     74 O3           6.2980     0.4840    -0.4930 os         1 50B      -0.346100
     75 O4           6.4970     2.8950     0.7020 os         1 50B      -0.311100
@<TRIPOS>BOND
     1     1     2 1   
     2     1     7 1   
     3     2     3 ar  
     4     2     4 ar  
     5     3     8 1   
     6     3    21 ar  
     7     4     5 ar  
     8     4    40 1   
     9     5     6 ar  
    10     5    22 1   
    11     6    18 1   
    12     6    21 ar  
    13     7     8 1   
    14     7    41 1   
    15     7    73 1   
    16     9    42 1   
    17     9    43 1   
    18     9    44 1   
    19     9    74 1   
    20    10    11 ar  
    21    10    15 ar  
    22    10    74 1   
    23    11    12 ar  
    24    11    20 ar  
    25    12    13 ar  
    26    12    17 ar  
    27    13    14 ar  
    28    13    45 1   
    29    14    15 ar  
    30    14    46 1   
    31    15    75 1   
    32    16    47 1   
    33    16    48 1   
    34    16    49 1   
    35    16    75 1   
    36    17    18 ar  
    37    17    24 1   
    38    18    19 2   
    39    19    20 1   
    40    19    23 1   
    41    20    50 1   
    42    21    51 1   
    43    22    23 1   
    44    22    52 1   
    45    22    53 1   
    46    23    54 1   
    47    23    55 1   
    48    24    25 1   
    49    24    56 1   
    50    24    57 1   
    51    25    26 1   
    52    25    58 1   
    53    25    59 1   
    54    26    27 1   
    55    26    60 1   
    56    26    61 1   
    57    27    28 1   
    58    27    34 1   
    59    27    62 1   
    60    28    29 ar  
    61    28    33 ar  
    62    29    30 ar  
    63    29    63 1   
    64    30    31 ar  
    65    30    64 1   
    66    31    32 ar  
    67    31    65 1   
    68    32    33 ar  
    69    32    66 1   
    70    33    67 1   
    71    34    35 ar  
    72    34    39 ar  
    73    35    36 ar  
    74    35    68 1   
    75    36    37 ar  
    76    36    69 1   
    77    37    38 ar  
    78    37    70 1   
    79    38    39 ar  
    80    38    71 1   
    81    39    72 1   
@<TRIPOS>SUBSTRUCTURE
     1 50B         1 TEMP              0 ****  ****    0 ROOT
