@<TRIPOS>MOLECULE
50C
   24    25     1     0     0
SMALL
abcg2


@<TRIPOS>ATOM
      1 C10         -2.5520     1.0270     0.4650 ca         1 50C      -0.158000
      2 C13         -2.6890    -1.2140    -0.4250 ca         1 50C      -0.158000
      3 C02          1.8940     0.7010    -0.2130 cc         1 50C      -0.236300
      4 C03          3.1090     0.0420    -0.1210 cd         1 50C       0.206000
      5 N04          4.3880     0.5070    -0.3230 nv         1 50C      -1.044000
      6 N05          2.8300    -1.2500     0.1270 na         1 50C      -0.036200
      7 N06          1.5170    -1.4970     0.2100 nd         1 50C      -0.520800
      8 C07          0.9420    -0.3240     0.0100 cc         1 50C       0.334500
      9 C08         -0.5210    -0.2190     0.0100 ca         1 50C      -0.130500
     10 C09         -1.1670     0.9330     0.4590 ca         1 50C      -0.065000
     11 C11         -3.2900    -0.0510     0.0190 ca         1 50C       0.173000
     12 F12         -4.6310     0.0320     0.0190 f          1 50C      -0.181000
     13 C14         -1.3060    -1.2880    -0.4270 ca         1 50C      -0.065000
     14 H1          -3.0440     1.9230     0.8200 ha         1 50C       0.130500
     15 H2          -3.2890    -2.0460    -0.7720 ha         1 50C       0.130500
     16 H3           1.5980     2.7730     0.3500 hc         1 50C       0.035700
     17 H4           2.5320     2.5360    -1.1170 hc         1 50C       0.035700
     18 H5           0.7970     2.2960    -1.1390 hc         1 50C       0.035700
     19 H6           4.5070     1.4780    -0.0770 hn         1 50C       0.447500
     20 H7           5.1160    -0.0500     0.0970 hn         1 50C       0.447500
     21 H8           3.4890    -1.9990     0.2660 hn         1 50C       0.370000
     22 H9          -0.5930     1.7700     0.8330 ha         1 50C       0.125000
     23 H10         -0.8280    -2.1910    -0.7850 ha         1 50C       0.125000
     24 C01          1.6940     2.1440    -0.5380 c3         1 50C      -0.001800
@<TRIPOS>BOND
     1     1    10 ar  
     2     1    11 ar  
     3     1    14 1   
     4     2    11 ar  
     5     2    13 ar  
     6     2    15 1   
     7     3     4 2   
     8     3     8 1   
     9     3    24 1   
    10     4     5 1   
    11     4     6 1   
    12     5    19 1   
    13     5    20 1   
    14     6     7 1   
    15     6    21 1   
    16     7     8 2   
    17     8     9 1   
    18     9    10 ar  
    19     9    13 ar  
    20    10    22 1   
    21    11    12 1   
    22    13    23 1   
    23    16    24 1   
    24    17    24 1   
    25    18    24 1   
@<TRIPOS>SUBSTRUCTURE
     1 50C         1 TEMP              0 ****  ****    0 ROOT
