@<TRIPOS>MOLECULE
50C
   24    25     1     0     0
SMALL
No Charge or Current Charge


@<TRIPOS>ATOM
      1 C10         -2.5850     1.0770     0.3090 ca         1 50C      -0.158000
      2 C13         -2.7390    -1.2660    -0.2870 ca         1 50C      -0.158000
      3 C02          1.9400     0.6880    -0.1800 cc         1 50C      -0.236300
      4 C03          3.1370     0.0510    -0.1020 cd         1 50C       0.206000
      5 N04          4.4120     0.5430    -0.1360 nv         1 50C      -1.044000
      6 N05          2.8620    -1.3040     0.0010 na         1 50C      -0.036200
      7 N06          1.4960    -1.5560    -0.0050 nd         1 50C      -0.520800
      8 C07          0.9550    -0.3480    -0.1140 cc         1 50C       0.334500
      9 C08         -0.5250    -0.2070    -0.0840 ca         1 50C      -0.130500
     10 C09         -1.1810     1.0000     0.2650 ca         1 50C      -0.065000
     11 C11         -3.3600    -0.0530     0.0260 ca         1 50C       0.173000
     12 F12         -4.7080     0.0240     0.0730 f          1 50C      -0.181000
     13 C14         -1.3360    -1.3460    -0.3300 ca         1 50C      -0.065000
     14 H1          -3.0710     2.0110     0.5770 ha         1 50C       0.130500
     15 H2          -3.3430    -2.1460    -0.4940 ha         1 50C       0.130500
     16 H3           1.4930     2.6680     0.5700 hc         1 50C       0.035700
     17 H4           2.6120     2.6480    -0.7960 hc         1 50C       0.035700
     18 H5           0.9010     2.3580    -1.0870 hc         1 50C       0.035700
     19 H6           4.5710     1.5500    -0.1380 hn         1 50C       0.447500
     20 H7           5.2170    -0.0610     0.0240 hn         1 50C       0.447500
     21 H8           3.5480    -2.0490     0.0710 hn         1 50C       0.370000
     22 H9          -0.6270     1.8870     0.5450 ha         1 50C       0.125000
     23 H10         -0.8840    -2.3040    -0.5800 ha         1 50C       0.125000
     24 C01          1.7170     2.1680    -0.3800 c3         1 50C      -0.001800
@<TRIPOS>BOND
     1     1    10 ar  
     2     1    11 ar  
     3     1    14 1   
     4     2    11 ar  
     5     2    13 ar  
     6     2    15 1   
     7     3     4 2   
     8     3     8 1   
     9     3    24 1   
    10     4     5 1   
    11     4     6 1   
    12     5    19 1   
    13     5    20 1   
    14     6     7 1   
    15     6    21 1   
    16     7     8 2   
    17     8     9 1   
    18     9    10 ar  
    19     9    13 ar  
    20    10    22 1   
    21    11    12 1   
    22    13    23 1   
    23    16    24 1   
    24    17    24 1   
    25    18    24 1   
@<TRIPOS>SUBSTRUCTURE
     1 50C         1 TEMP              0 ****  ****    0 ROOT
