@<TRIPOS>MOLECULE
50D
   58    62     1     0     0
SMALL
bcc


@<TRIPOS>ATOM
      1 C4          -2.4930    -2.3990    -0.1060 ca         1 50D       0.693200
      2 C14         -0.9400     1.5070     0.3030 ca         1 50D       0.734200
      3 C5          -2.9430    -3.6490     0.3490 ca         1 50D      -0.277300
      4 C6          -4.2170    -4.0470    -0.0080 ca         1 50D       0.058000
      5 C11          0.7330    -0.6420     0.1430 ca         1 50D      -0.353300
      6 C7          -4.7100    -5.3160     0.4300 cg         1 50D       0.227800
      7 C10         -0.6540    -0.7530     0.2030 ca         1 50D       0.727200
      8 C12          1.2900     0.6340     0.1760 ca         1 50D       0.032700
      9 C13          0.4470     1.7300     0.2460 ca         1 50D      -0.349300
     10 N3          -3.2490    -1.6090    -0.8560 nb         1 50D      -0.682000
     11 C1          -5.0260    -3.2110    -0.7790 ca         1 50D      -0.262300
     12 C2          -4.4760    -2.0040    -1.1670 ca         1 50D       0.443200
     13 N8          -5.1130    -6.3370     0.7790 n1         1 50D      -0.348800
     14 N9          -1.2120    -2.0230     0.2110 nu         1 50D      -0.869600
     15 N15         -1.4670     0.2840     0.3010 nb         1 50D      -0.768000
     16 N16         -1.8220     2.5320     0.3820 nh         1 50D      -0.805300
     17 C17         -1.4380     3.9340     0.3870 c5         1 50D       0.235800
     18 C18         -2.7550     4.6590     0.6360 c5         1 50D      -0.148400
     19 C19         -3.7630     3.7190     0.0170 c5         1 50D       0.405600
     20 C20         -3.2530     2.3250     0.3320 c5         1 50D       0.190800
     21 F21         -5.0340     3.9180     0.4520 f          1 50D      -0.231800
     22 F22         -3.8030     3.9050    -1.3400 f          1 50D      -0.231800
     23 C23          2.7810     0.8280     0.1170 c6         1 50D      -0.024400
     24 C24          3.4960     0.1960     1.3130 c6         1 50D      -0.068400
     25 C25          4.9980     0.3990     1.2070 c6         1 50D       0.165800
     26 N26          5.5140    -0.1490    -0.0360 n3         1 50D      -0.707600
     27 C27          4.8960     0.4900    -1.1860 c6         1 50D       0.165800
     28 C28          3.3900     0.2880    -1.1780 c6         1 50D      -0.068400
     29 C29          6.9490    -0.0500    -0.0930 cy         1 50D       0.106500
     30 C30          7.7270    -0.9670     0.8570 cy         1 50D       0.119400
     31 O31          8.4240    -1.5820    -0.2340 oq         1 50D      -0.400600
     32 C32          7.6370    -0.8660    -1.1930 cy         1 50D       0.119400
     33 H1          -2.3140    -4.2780     0.9640 ha         1 50D       0.150000
     34 H3           0.8560     2.7310     0.2570 ha         1 50D       0.140000
     35 H4          -6.0280    -3.4920    -1.0670 ha         1 50D       0.156000
     36 H5          -5.0560    -1.3220    -1.7770 h4         1 50D       0.025100
     37 H6          -0.5950    -2.7670     0.4960 hn         1 50D       0.449800
     38 H7          -0.7070     4.1470     1.1690 h1         1 50D       0.054200
     39 H8          -0.9940     4.2290    -0.5700 h1         1 50D       0.054200
     40 H9          -2.9540     4.7330     1.7060 hc         1 50D       0.081700
     41 H10         -2.7840     5.6600     0.2080 hc         1 50D       0.081700
     42 H11         -3.5400     1.5940    -0.4260 h1         1 50D       0.086700
     43 H12         -3.6580     1.9860     1.2910 h1         1 50D       0.086700
     44 H13          2.9770     1.9060     0.1480 hc         1 50D       0.049700
     45 H14          3.1360     0.6370     2.2450 hc         1 50D       0.053450
     46 H15          3.2790    -0.8750     1.3600 hc         1 50D       0.053450
     47 H16          5.2290     1.4760     1.2990 h1         1 50D       0.032950
     48 H17          5.4910    -0.0980     2.0470 h1         1 50D       0.032950
     49 H19          5.1200     1.5710    -1.2170 h1         1 50D       0.032950
     50 H20          5.3130     0.0590    -2.1000 h1         1 50D       0.032950
     51 H21          3.1700    -0.7780    -1.2830 hc         1 50D       0.053450
     52 H22          2.9510     0.7920    -2.0410 hc         1 50D       0.053450
     53 H23          7.2980     0.9950    -0.0570 h1         1 50D       0.041700
     54 H24          8.4040    -0.4780     1.5630 h1         1 50D       0.056200
     55 H25          7.0950    -1.6770     1.4010 h1         1 50D       0.056200
     56 H26          6.9580    -1.5220    -1.7480 h1         1 50D       0.056200
     57 H27          8.2510    -0.3050    -1.9030 h1         1 50D       0.056200
     58 H2           1.3510    -1.5280     0.0690 ha         1 50D       0.143000
@<TRIPOS>BOND
     1     1     3 ar  
     2     1    10 ar  
     3     1    14 1   
     4     2     9 ar  
     5     2    15 ar  
     6     2    16 1   
     7     3     4 ar  
     8     3    33 1   
     9     4     6 1   
    10     4    11 ar  
    11     5     7 ar  
    12     5     8 ar  
    13     5    58 1   
    14     6    13 3   
    15     7    14 1   
    16     7    15 ar  
    17     8     9 ar  
    18     8    23 1   
    19     9    34 1   
    20    10    12 ar  
    21    11    12 ar  
    22    11    35 1   
    23    12    36 1   
    24    14    37 1   
    25    16    17 1   
    26    16    20 1   
    27    17    18 1   
    28    17    38 1   
    29    17    39 1   
    30    18    19 1   
    31    18    40 1   
    32    18    41 1   
    33    19    20 1   
    34    19    21 1   
    35    19    22 1   
    36    20    42 1   
    37    20    43 1   
    38    23    24 1   
    39    23    28 1   
    40    23    44 1   
    41    24    25 1   
    42    24    45 1   
    43    24    46 1   
    44    25    26 1   
    45    25    47 1   
    46    25    48 1   
    47    26    27 1   
    48    26    29 1   
    49    27    28 1   
    50    27    49 1   
    51    27    50 1   
    52    28    51 1   
    53    28    52 1   
    54    29    30 1   
    55    29    32 1   
    56    29    53 1   
    57    30    31 1   
    58    30    54 1   
    59    30    55 1   
    60    31    32 1   
    61    32    56 1   
    62    32    57 1   
@<TRIPOS>SUBSTRUCTURE
     1 50D         1 TEMP              0 ****  ****    0 ROOT
