@<TRIPOS>MOLECULE
50D
   58    62     1     0     0
SMALL
No Charge or Current Charge


@<TRIPOS>ATOM
      1 C4          -2.5360    -2.4400    -0.1400 ca         1 50D       0.627900
      2 C14         -0.9730     1.5310     0.2770 ca         1 50D       0.668900
      3 C5          -3.0710    -3.5570     0.5150 ca         1 50D      -0.194000
      4 C6          -4.3210    -4.0540     0.1060 ca         1 50D       0.058000
      5 C11          0.6880    -0.6250     0.1310 ca         1 50D      -0.270000
      6 C7          -4.9190    -5.1900     0.7570 cg         1 50D       0.317000
      7 C10         -0.7040    -0.7300     0.1710 ca         1 50D       0.661900
      8 C12          1.2790     0.6460     0.1450 ca         1 50D       0.032700
      9 C13          0.4140     1.7460     0.2160 ca         1 50D      -0.266000
     10 N3          -3.1350    -1.8360    -1.1740 nb         1 50D      -0.682000
     11 C1          -4.9640    -3.4060    -0.9610 ca         1 50D      -0.179000
     12 C2          -4.3360    -2.3080    -1.5700 ca         1 50D       0.377900
     13 N8          -5.3960    -6.1150     1.2870 n1         1 50D      -0.438000
     14 N9          -1.2960    -1.9640     0.2060 nu         1 50D      -0.924800
     15 N15         -1.5240     0.3130     0.2650 nb         1 50D      -0.768000
     16 N16         -1.8960     2.5890     0.3590 nh         1 50D      -0.805300
     17 C17         -1.5140     4.0170     0.4840 c5         1 50D       0.235800
     18 C18         -2.8530     4.6630     0.9200 c5         1 50D      -0.148400
     19 C19         -3.8810     3.8800     0.0670 c5         1 50D       0.163000
     20 C20         -3.3750     2.4140     0.2080 c5         1 50D       0.190800
     21 F21         -5.1750     4.0320     0.5620 f          1 50D      -0.110500
     22 F22         -3.8730     4.3050    -1.2630 f          1 50D      -0.110500
     23 C23          2.8000     0.8360     0.0870 c6         1 50D      -0.024400
     24 C24          3.5160     0.1970     1.3050 c6         1 50D      -0.068400
     25 C25          5.0500     0.3830     1.2100 c6         1 50D       0.165800
     26 N26          5.5880    -0.1790    -0.0600 n3         1 50D      -0.707600
     27 C27          4.9470     0.4550    -1.2460 c6         1 50D       0.165800
     28 C28          3.4100     0.2720    -1.2220 c6         1 50D      -0.068400
     29 C29          7.0770    -0.0950    -0.1200 cy         1 50D       0.106500
     30 C30          7.9130    -0.9910     0.8540 cy         1 50D       0.142600
     31 O31          8.9090    -1.1240    -0.2270 oq         1 50D      -0.447000
     32 C32          7.8260    -0.9310    -1.2110 cy         1 50D       0.142600
     33 H1          -2.5300    -4.0220     1.3330 ha         1 50D       0.132000
     34 H3           0.8170     2.7530     0.2240 ha         1 50D       0.122000
     35 H4          -5.9310    -3.7430    -1.3240 ha         1 50D       0.138000
     36 H5          -4.8090    -1.7930    -2.4050 h4         1 50D       0.025100
     37 H6          -0.6900    -2.6750     0.5910 hn         1 50D       0.505000
     38 H7          -0.7310     4.1830     1.2380 h1         1 50D       0.054200
     39 H8          -1.1650     4.4190    -0.4780 h1         1 50D       0.054200
     40 H9          -3.0300     4.5110     1.9910 hc         1 50D       0.081700
     41 H10         -2.8760     5.7410     0.7320 hc         1 50D       0.081700
     42 H11         -3.6370     1.8220    -0.6800 h1         1 50D       0.086700
     43 H12         -3.8150     1.9260     1.0890 h1         1 50D       0.086700
     44 H13          3.0120     1.9150     0.1100 hc         1 50D       0.049700
     45 H14          3.1470     0.6490     2.2360 hc         1 50D       0.053450
     46 H15          3.2870    -0.8750     1.3640 hc         1 50D       0.053450
     47 H16          5.2890     1.4540     1.2850 h1         1 50D       0.032950
     48 H17          5.5140    -0.1120     2.0750 h1         1 50D       0.032950
     49 H19          5.1810     1.5300    -1.2770 h1         1 50D       0.032950
     50 H20          5.3360     0.0120    -2.1740 h1         1 50D       0.032950
     51 H21          3.1740    -0.7960    -1.3240 hc         1 50D       0.053450
     52 H22          2.9650     0.7760    -2.0910 hc         1 50D       0.053450
     53 H23          7.4230     0.9450    -0.1040 h1         1 50D       0.041700
     54 H24          8.3120    -0.4870     1.7410 h1         1 50D       0.056200
     55 H25          7.4510    -1.9550     1.1030 h1         1 50D       0.056200
     56 H26          7.3430    -1.8790    -1.4770 h1         1 50D       0.056200
     57 H27          8.1500    -0.3740    -2.0980 h1         1 50D       0.056200
     58 H2           1.2990    -1.5210     0.0790 ha         1 50D       0.125000
@<TRIPOS>BOND
     1     1     3 ar  
     2     1    10 ar  
     3     1    14 1   
     4     2     9 ar  
     5     2    15 ar  
     6     2    16 1   
     7     3     4 ar  
     8     3    33 1   
     9     4     6 1   
    10     4    11 ar  
    11     5     7 ar  
    12     5     8 ar  
    13     5    58 1   
    14     6    13 3   
    15     7    14 1   
    16     7    15 ar  
    17     8     9 ar  
    18     8    23 1   
    19     9    34 1   
    20    10    12 ar  
    21    11    12 ar  
    22    11    35 1   
    23    12    36 1   
    24    14    37 1   
    25    16    17 1   
    26    16    20 1   
    27    17    18 1   
    28    17    38 1   
    29    17    39 1   
    30    18    19 1   
    31    18    40 1   
    32    18    41 1   
    33    19    20 1   
    34    19    21 1   
    35    19    22 1   
    36    20    42 1   
    37    20    43 1   
    38    23    24 1   
    39    23    28 1   
    40    23    44 1   
    41    24    25 1   
    42    24    45 1   
    43    24    46 1   
    44    25    26 1   
    45    25    47 1   
    46    25    48 1   
    47    26    27 1   
    48    26    29 1   
    49    27    28 1   
    50    27    49 1   
    51    27    50 1   
    52    28    51 1   
    53    28    52 1   
    54    29    30 1   
    55    29    32 1   
    56    29    53 1   
    57    30    31 1   
    58    30    54 1   
    59    30    55 1   
    60    31    32 1   
    61    32    56 1   
    62    32    57 1   
@<TRIPOS>SUBSTRUCTURE
     1 50D         1 TEMP              0 ****  ****    0 ROOT
