@<TRIPOS>MOLECULE
50E
   47    49     1     0     0
SMALL
abcg2


@<TRIPOS>ATOM
      1 C14          2.7810    -1.7380    -0.2110 ca         1 50E       0.385900
      2 C5          -2.4910     0.0070    -0.1770 cc         1 50E      -0.123300
      3 C6          -1.1490    -0.3260    -0.2040 cd         1 50E      -0.221000
      4 C11          3.2260     0.9310    -0.0720 ca         1 50E      -0.187000
      5 C7          -0.4840     0.9030    -0.0440 cd         1 50E       0.501900
      6 C10          1.9300     0.3740    -0.0800 ca         1 50E       0.633900
      7 C12          4.2990     0.0760    -0.1380 ca         1 50E      -0.113300
      8 C13          4.0890    -1.3030    -0.2060 ca         1 50E      -0.184000
      9 C3          -3.8090     2.8520     1.4560 c3         1 50E      -0.102600
     10 C1          -3.7370     3.2200    -1.0430 c3         1 50E      -0.102600
     11 N4          -2.5510     1.3420    -0.0090 na         1 50E       0.136800
     12 N8          -1.3400     1.9020     0.0760 nc         1 50E      -0.586800
     13 N9           0.8640     1.2160    -0.0140 nu         1 50E      -0.891800
     14 N15          1.7240    -0.9330    -0.1520 nb         1 50E      -0.721000
     15 C16          5.7000     0.6080    -0.0910 c3         1 50E       0.355300
     16 F17          5.7720     1.8970    -0.4300 f          1 50E      -0.110333
     17 F18          6.2140     0.4950     1.1410 f          1 50E      -0.110333
     18 F19          6.5110    -0.0650    -0.9140 f          1 50E      -0.110333
     19 C20         -3.6900    -0.8780    -0.2900 c6         1 50E       0.003600
     20 C21         -3.3370    -2.2250    -0.9230 c6         1 50E      -0.110400
     21 C22         -4.5760    -3.1110    -1.0140 c6         1 50E       0.147800
     22 N23         -5.2530    -3.3150     0.2570 n7         1 50E      -0.844400
     23 C24         -5.5640    -2.0530     0.9070 c6         1 50E       0.147800
     24 C25         -4.3650    -1.1200     1.0670 c6         1 50E      -0.110400
     25 H1           2.5660    -2.7980    -0.2680 h4         1 50E       0.023100
     26 H2          -0.7190    -1.3010    -0.3300 ha         1 50E       0.166000
     27 H3           3.3490     2.0050    -0.0200 ha         1 50E       0.138000
     28 H4           4.9000    -2.0150    -0.2570 ha         1 50E       0.140000
     29 H5          -2.9750     3.5350     1.6160 hc         1 50E       0.049033
     30 H6          -4.7340     3.4240     1.5360 hc         1 50E       0.049033
     31 H7          -3.8030     2.1060     2.2520 hc         1 50E       0.049033
     32 H8          -3.6990     2.7330    -2.0180 hc         1 50E       0.049033
     33 H9          -4.6520     3.8110    -0.9960 hc         1 50E       0.049033
     34 H10         -2.8900     3.8990    -0.9620 hc         1 50E       0.049033
     35 H11         -4.5870     1.5380    -0.0360 h1         1 50E       0.056700
     36 H12          1.0650     2.2010     0.0590 hn         1 50E       0.512000
     37 H13         -4.4210    -0.3910    -0.9490 hc         1 50E       0.055700
     38 H14         -2.9060    -2.0790    -1.9160 hc         1 50E       0.051700
     39 H15         -2.5790    -2.7290    -0.3130 hc         1 50E       0.051700
     40 H16         -5.2910    -2.6570    -1.7100 h1         1 50E       0.052950
     41 H17         -4.3100    -4.0850    -1.4310 h1         1 50E       0.052950
     42 H18         -4.6500    -3.8580     0.8650 hn         1 50E       0.405000
     43 H20         -6.3320    -1.5450     0.3130 h1         1 50E       0.052950
     44 H21         -6.0100    -2.2600     1.8830 h1         1 50E       0.052950
     45 H22         -3.6370    -1.5670     1.7530 hc         1 50E       0.051700
     46 H23         -4.6890    -0.1780     1.5170 hc         1 50E       0.051700
     47 C2          -3.7260     2.1970     0.0840 c3         1 50E       0.106300
@<TRIPOS>BOND
     1     1     8 ar  
     2     1    14 ar  
     3     1    25 1   
     4     2     3 2   
     5     2    11 1   
     6     2    19 1   
     7     3     5 1   
     8     3    26 1   
     9     4     6 ar  
    10     4     7 ar  
    11     4    27 1   
    12     5    12 2   
    13     5    13 1   
    14     6    13 1   
    15     6    14 ar  
    16     7     8 ar  
    17     7    15 1   
    18     8    28 1   
    19     9    29 1   
    20     9    30 1   
    21     9    31 1   
    22     9    47 1   
    23    10    32 1   
    24    10    33 1   
    25    10    34 1   
    26    10    47 1   
    27    11    12 1   
    28    11    47 1   
    29    13    36 1   
    30    15    16 1   
    31    15    17 1   
    32    15    18 1   
    33    19    20 1   
    34    19    24 1   
    35    19    37 1   
    36    20    21 1   
    37    20    38 1   
    38    20    39 1   
    39    21    22 1   
    40    21    40 1   
    41    21    41 1   
    42    22    23 1   
    43    22    42 1   
    44    23    24 1   
    45    23    43 1   
    46    23    44 1   
    47    24    45 1   
    48    24    46 1   
    49    35    47 1   
@<TRIPOS>SUBSTRUCTURE
     1 50E         1 TEMP              0 ****  ****    0 ROOT
