@<TRIPOS>MOLECULE
50E
   47    49     1     0     0
SMALL
No Charge or Current Charge


@<TRIPOS>ATOM
      1 C14          2.8300    -1.8100    -0.3560 ca         1 50E       0.385900
      2 C5          -2.5410     0.0220    -0.1760 cc         1 50E      -0.123300
      3 C6          -1.2120    -0.3010    -0.2020 cd         1 50E      -0.221000
      4 C11          3.2300     0.8730    -0.0090 ca         1 50E      -0.187000
      5 C7          -0.5040     0.9010    -0.0490 cd         1 50E       0.501900
      6 C10          1.9510     0.2990    -0.0990 ca         1 50E       0.633900
      7 C12          4.3740     0.0530    -0.1040 ca         1 50E      -0.113300
      8 C13          4.1470    -1.3270    -0.2770 ca         1 50E      -0.184000
      9 C3          -3.8240     3.0000     1.4590 c3         1 50E      -0.102600
     10 C1          -3.7970     3.3060    -1.0840 c3         1 50E      -0.102600
     11 N4          -2.5370     1.4140    -0.0080 na         1 50E       0.136800
     12 N8          -1.2600     1.9550     0.0710 nc         1 50E      -0.586800
     13 N9           0.8320     1.0950    -0.0100 nu         1 50E      -0.891800
     14 N15          1.7450    -1.0110    -0.2700 nb         1 50E      -0.721000
     15 C16          5.7900     0.6350    -0.0000 c3         1 50E       0.355300
     16 F17          5.8710     1.8770    -0.5290 f          1 50E      -0.110333
     17 F18          6.1910     0.7260     1.2870 f          1 50E      -0.110333
     18 F19          6.7070    -0.1220    -0.6470 f          1 50E      -0.110333
     19 C20         -3.7410    -0.9000    -0.3060 c6         1 50E       0.003600
     20 C21         -3.3830    -2.2540    -0.9780 c6         1 50E      -0.110400
     21 C22         -4.6210    -3.1800    -1.0430 c6         1 50E       0.147800
     22 N23         -5.1890    -3.3970     0.3110 n7         1 50E      -0.844400
     23 C24         -5.5750    -2.1300     0.9790 c6         1 50E       0.147800
     24 C25         -4.3690    -1.1660     1.0870 c6         1 50E      -0.110400
     25 H1           2.6380    -2.8730    -0.4910 h4         1 50E       0.023100
     26 H2          -0.7880    -1.2880    -0.3170 ha         1 50E       0.166000
     27 H3           3.3300     1.9440     0.1350 ha         1 50E       0.138000
     28 H4           4.9730    -2.0300    -0.3480 ha         1 50E       0.140000
     29 H5          -2.9840     3.6890     1.6100 hc         1 50E       0.049033
     30 H6          -4.7560     3.5730     1.5340 hc         1 50E       0.049033
     31 H7          -3.8130     2.2610     2.2690 hc         1 50E       0.049033
     32 H8          -3.7700     2.7790    -2.0460 hc         1 50E       0.049033
     33 H9          -4.7280     3.8840    -1.0390 hc         1 50E       0.049033
     34 H10         -2.9550     4.0070    -1.0520 hc         1 50E       0.049033
     35 H11         -4.6130     1.6610    -0.0010 h1         1 50E       0.056700
     36 H12          1.0450     2.0760     0.1140 hn         1 50E       0.512000
     37 H13         -4.4980    -0.4120    -0.9380 hc         1 50E       0.055700
     38 H14         -2.9960    -2.0820    -1.9910 hc         1 50E       0.051700
     39 H15         -2.5880    -2.7630    -0.4160 hc         1 50E       0.051700
     40 H16         -5.3830    -2.7310    -1.6970 h1         1 50E       0.052950
     41 H17         -4.3350    -4.1470    -1.4840 h1         1 50E       0.052950
     42 H18         -4.4740    -3.8580     0.8870 hn         1 50E       0.405000
     43 H20         -6.3820    -1.6440     0.4090 h1         1 50E       0.052950
     44 H21         -5.9660    -2.3460     1.9850 h1         1 50E       0.052950
     45 H22         -3.6140    -1.5920     1.7620 hc         1 50E       0.051700
     46 H23         -4.6960    -0.2230     1.5450 hc         1 50E       0.051700
     47 C2          -3.7260     2.2990     0.0850 c3         1 50E       0.106300
@<TRIPOS>BOND
     1     1     8 ar  
     2     1    14 ar  
     3     1    25 1   
     4     2     3 2   
     5     2    11 1   
     6     2    19 1   
     7     3     5 1   
     8     3    26 1   
     9     4     6 ar  
    10     4     7 ar  
    11     4    27 1   
    12     5    12 2   
    13     5    13 1   
    14     6    13 1   
    15     6    14 ar  
    16     7     8 ar  
    17     7    15 1   
    18     8    28 1   
    19     9    29 1   
    20     9    30 1   
    21     9    31 1   
    22     9    47 1   
    23    10    32 1   
    24    10    33 1   
    25    10    34 1   
    26    10    47 1   
    27    11    12 1   
    28    11    47 1   
    29    13    36 1   
    30    15    16 1   
    31    15    17 1   
    32    15    18 1   
    33    19    20 1   
    34    19    24 1   
    35    19    37 1   
    36    20    21 1   
    37    20    38 1   
    38    20    39 1   
    39    21    22 1   
    40    21    40 1   
    41    21    41 1   
    42    22    23 1   
    43    22    42 1   
    44    23    24 1   
    45    23    43 1   
    46    23    44 1   
    47    24    45 1   
    48    24    46 1   
    49    35    47 1   
@<TRIPOS>SUBSTRUCTURE
     1 50E         1 TEMP              0 ****  ****    0 ROOT
