@<TRIPOS>MOLECULE
50F
   57    61     1     0     0
SMALL
bcc


@<TRIPOS>ATOM
      1 C4          -3.7640     0.6610    -0.0660 ca         1 50F       0.701200
      2 C5          -5.1580     0.6680     0.1410 ca         1 50F      -0.285300
      3 C6          -5.8070     1.8820     0.0910 ca         1 50F       0.067000
      4 C11         -0.6660     0.0870    -0.3710 cc         1 50F      -0.300300
      5 C7          -7.2220     1.9320     0.2990 cg         1 50F       0.228800
      6 C10         -1.7540    -0.7760    -0.1520 cc         1 50F       0.567200
      7 C12          0.4320    -0.7530    -0.4040 cd         1 50F      -0.072600
      8 N3          -3.0820     1.7750    -0.3020 nb         1 50F      -0.727000
      9 C1          -5.0960     3.0610    -0.1580 ca         1 50F      -0.277300
     10 C2          -3.7360     2.9310    -0.3440 ca         1 50F       0.454200
     11 N8          -8.3590     1.9760     0.4690 n1         1 50F      -0.349800
     12 N9          -3.1100    -0.5280    -0.0200 nu         1 50F      -0.835600
     13 N13         -0.0350    -2.0040    -0.2200 na         1 50F       0.118400
     14 N14         -1.3620    -2.0330    -0.0620 nd         1 50F      -0.587800
     15 C15          0.7030    -3.2480    -0.1120 c5         1 50F       0.065000
     16 C16          0.5220    -3.9210     1.2680 c5         1 50F      -0.087400
     17 C17         -0.3770    -5.1270     1.0100 c5         1 50F      -0.078400
     18 C18          0.0770    -5.5990    -0.3680 c5         1 50F      -0.078400
     19 C19          0.2420    -4.2960    -1.1510 c5         1 50F      -0.087400
     20 C20          1.8800    -0.4140    -0.5500 c6         1 50F       0.002600
     21 C21          2.5990    -0.4150     0.8050 c6         1 50F      -0.071400
     22 C22          4.0550    -0.0130     0.6470 c6         1 50F       0.165800
     23 N23          4.1720     1.2880     0.0110 n3         1 50F      -0.705600
     24 C24          3.5620     1.2830    -1.3070 c6         1 50F       0.165800
     25 C25          2.0830     0.9400    -1.2250 c6         1 50F      -0.071400
     26 C26          5.5470     1.7100    -0.0530 cy         1 50F       0.105500
     27 C27          5.7890     3.1830    -0.4000 cy         1 50F       0.119900
     28 O28          6.5100     3.3980     0.8200 oq         1 50F      -0.400600
     29 C29          6.2020     2.0780     1.2820 cy         1 50F       0.119900
     30 H1          -5.6970    -0.2490     0.3360 ha         1 50F       0.152000
     31 H3          -5.5830     4.0230    -0.2000 ha         1 50F       0.156000
     32 H4          -3.1330     3.8100    -0.5410 h4         1 50F       0.023100
     33 H5          -3.6690    -1.3480     0.1570 hn         1 50F       0.455800
     34 H6           1.7490    -2.9980    -0.2730 h1         1 50F       0.061700
     35 H7           1.4970    -4.2590     1.6250 hc         1 50F       0.056450
     36 H8           0.1260    -3.2300     2.0120 hc         1 50F       0.056450
     37 H9          -0.2910    -5.8930     1.7810 hc         1 50F       0.048700
     38 H10         -1.4230    -4.8110     0.9680 hc         1 50F       0.048700
     39 H11          1.0350    -6.1210    -0.2830 hc         1 50F       0.048700
     40 H12         -0.6240    -6.2850    -0.8450 hc         1 50F       0.048700
     41 H13         -0.7200    -3.9950    -1.5690 hc         1 50F       0.056450
     42 H14          0.9450    -4.3780    -1.9800 hc         1 50F       0.056450
     43 H15          2.3580    -1.1680    -1.1890 hc         1 50F       0.050700
     44 H16          2.0950     0.2810     1.4820 hc         1 50F       0.057200
     45 H17          2.5530    -1.4030     1.2700 hc         1 50F       0.057200
     46 H18          4.5260     0.0300     1.6330 h1         1 50F       0.032950
     47 H19          4.5900    -0.7910     0.0740 h1         1 50F       0.032950
     48 H21          3.6770     2.2730    -1.7540 h1         1 50F       0.032950
     49 H22          4.0680     0.5710    -1.9830 h1         1 50F       0.032950
     50 H23          1.6600     0.9300    -2.2310 hc         1 50F       0.057200
     51 H24          1.5670     1.7220    -0.6610 hc         1 50F       0.057200
     52 H25          6.1650     1.0260    -0.6560 h1         1 50F       0.041700
     53 H26          6.3990     3.3780    -1.2850 h1         1 50F       0.056700
     54 H27          4.8740     3.7830    -0.4550 h1         1 50F       0.056700
     55 H28          5.5080     2.0850     2.1300 h1         1 50F       0.056700
     56 H29          7.0960     1.5130     1.5590 h1         1 50F       0.056700
     57 H2          -0.6790     1.1540    -0.4880 ha         1 50F       0.186000
@<TRIPOS>BOND
     1     1     2 ar  
     2     1     8 ar  
     3     1    12 1   
     4     2     3 ar  
     5     2    30 1   
     6     3     5 1   
     7     3     9 ar  
     8     4     6 1   
     9     4     7 2   
    10     4    57 1   
    11     5    11 3   
    12     6    12 1   
    13     6    14 2   
    14     7    13 1   
    15     7    20 1   
    16     8    10 ar  
    17     9    10 ar  
    18     9    31 1   
    19    10    32 1   
    20    12    33 1   
    21    13    14 1   
    22    13    15 1   
    23    15    16 1   
    24    15    19 1   
    25    15    34 1   
    26    16    17 1   
    27    16    35 1   
    28    16    36 1   
    29    17    18 1   
    30    17    37 1   
    31    17    38 1   
    32    18    19 1   
    33    18    39 1   
    34    18    40 1   
    35    19    41 1   
    36    19    42 1   
    37    20    21 1   
    38    20    25 1   
    39    20    43 1   
    40    21    22 1   
    41    21    44 1   
    42    21    45 1   
    43    22    23 1   
    44    22    46 1   
    45    22    47 1   
    46    23    24 1   
    47    23    26 1   
    48    24    25 1   
    49    24    48 1   
    50    24    49 1   
    51    25    50 1   
    52    25    51 1   
    53    26    27 1   
    54    26    29 1   
    55    26    52 1   
    56    27    28 1   
    57    27    53 1   
    58    27    54 1   
    59    28    29 1   
    60    29    55 1   
    61    29    56 1   
@<TRIPOS>SUBSTRUCTURE
     1 50F         1 TEMP              0 ****  ****    0 ROOT
