@<TRIPOS>MOLECULE
50F
   57    61     1     0     0
SMALL
No Charge or Current Charge


@<TRIPOS>ATOM
      1 C4          -3.8800     0.9090    -0.1980 ca         1 50F       0.635900
      2 C5          -5.1670     1.0910     0.3210 ca         1 50F      -0.202000
      3 C6          -5.8150     2.3210     0.1240 ca         1 50F       0.067000
      4 C11         -0.8260     0.0700    -0.3190 cc         1 50F      -0.217000
      5 C7          -7.1370     2.5590     0.6440 cg         1 50F       0.318000
      6 C10         -1.9560    -0.7320    -0.1480 cc         1 50F       0.501900
      7 C12          0.2430    -0.7770    -0.3430 cd         1 50F      -0.123300
      8 N3          -3.2290     1.8460    -0.8960 nb         1 50F      -0.727000
      9 C1          -5.1300     3.3110    -0.6000 ca         1 50F      -0.194000
     10 C2          -3.8470     3.0310    -1.0890 ca         1 50F       0.388900
     11 N8          -8.2090     2.7430     1.0690 n1         1 50F      -0.439000
     12 N9          -3.2340    -0.2940    -0.0380 nu         1 50F      -0.890800
     13 N13         -0.3280    -2.0540    -0.1780 na         1 50F       0.139800
     14 N14         -1.7160    -2.0070    -0.0440 nd         1 50F      -0.587800
     15 C15          0.3790    -3.3470    -0.1160 c5         1 50F       0.094300
     16 C16          0.2850    -4.0880     1.2420 c5         1 50F      -0.087400
     17 C17          0.9530    -5.4570     0.9220 c5         1 50F      -0.078400
     18 C18          0.6870    -5.6870    -0.6020 c5         1 50F      -0.078400
     19 C19         -0.1710    -4.4660    -1.0390 c5         1 50F      -0.087400
     20 C20          1.7140    -0.4230    -0.5040 c6         1 50F       0.002600
     21 C21          2.4530    -0.5140     0.8550 c6         1 50F      -0.071400
     22 C22          3.9470    -0.1400     0.7040 c6         1 50F       0.165800
     23 N23          4.1130     1.2160     0.1100 n3         1 50F      -0.705600
     24 C24          3.4440     1.3130    -1.2160 c6         1 50F       0.165800
     25 C25          1.9350     0.9890    -1.1080 c6         1 50F      -0.071400
     26 C26          5.5470     1.6240     0.0430 cy         1 50F       0.105500
     27 C27          5.8820     3.1280    -0.2300 cy         1 50F       0.143100
     28 O28          7.0410     2.9660     0.6680 oq         1 50F      -0.447000
     29 C29          6.3050     1.9060     1.3840 cy         1 50F       0.143100
     30 H1          -5.6530     0.2910     0.8730 ha         1 50F       0.134000
     31 H3          -5.5790     4.2830    -0.7870 ha         1 50F       0.138000
     32 H4          -3.2940     3.7790    -1.6570 h4         1 50F       0.023100
     33 H5          -3.8450    -1.0430     0.2600 hn         1 50F       0.511000
     34 H6           1.4350    -3.1730    -0.3600 h1         1 50F       0.061700
     35 H7           0.8030    -3.5520     2.0460 hc         1 50F       0.056450
     36 H8          -0.7560    -4.2180     1.5610 hc         1 50F       0.056450
     37 H9           2.0300    -5.4280     1.1250 hc         1 50F       0.048700
     38 H10          0.5360    -6.2620     1.5390 hc         1 50F       0.048700
     39 H11          1.6320    -5.7210    -1.1580 hc         1 50F       0.048700
     40 H12          0.1720    -6.6350    -0.7950 hc         1 50F       0.048700
     41 H13         -1.2390    -4.6490    -0.8710 hc         1 50F       0.056450
     42 H14         -0.0450    -4.2290    -2.1020 hc         1 50F       0.056450
     43 H15          2.1730    -1.1480    -1.1910 hc         1 50F       0.050700
     44 H16          1.9790     0.1580     1.5840 hc         1 50F       0.057200
     45 H17          2.3710    -1.5280     1.2670 hc         1 50F       0.057200
     46 H18          4.4190    -0.1840     1.6960 h1         1 50F       0.032950
     47 H19          4.4440    -0.8940     0.0750 h1         1 50F       0.032950
     48 H21          3.5530     2.3270    -1.6270 h1         1 50F       0.032950
     49 H22          3.9120     0.6210    -1.9320 h1         1 50F       0.032950
     50 H23          1.4710     1.0520    -2.1010 hc         1 50F       0.057200
     51 H24          1.4550     1.7530    -0.4820 hc         1 50F       0.057200
     52 H25          6.1250     0.9590    -0.6110 h1         1 50F       0.041700
     53 H26          6.1700     3.3720    -1.2580 h1         1 50F       0.056700
     54 H27          5.1520     3.8420     0.1710 h1         1 50F       0.056700
     55 H28          5.6800     2.3150     2.1870 h1         1 50F       0.056700
     56 H29          6.9560     1.1020     1.7420 h1         1 50F       0.056700
     57 H2          -0.8200     1.1480    -0.3990 ha         1 50F       0.168000
@<TRIPOS>BOND
     1     1     2 ar  
     2     1     8 ar  
     3     1    12 1   
     4     2     3 ar  
     5     2    30 1   
     6     3     5 1   
     7     3     9 ar  
     8     4     6 1   
     9     4     7 2   
    10     4    57 1   
    11     5    11 3   
    12     6    12 1   
    13     6    14 2   
    14     7    13 1   
    15     7    20 1   
    16     8    10 ar  
    17     9    10 ar  
    18     9    31 1   
    19    10    32 1   
    20    12    33 1   
    21    13    14 1   
    22    13    15 1   
    23    15    16 1   
    24    15    19 1   
    25    15    34 1   
    26    16    17 1   
    27    16    35 1   
    28    16    36 1   
    29    17    18 1   
    30    17    37 1   
    31    17    38 1   
    32    18    19 1   
    33    18    39 1   
    34    18    40 1   
    35    19    41 1   
    36    19    42 1   
    37    20    21 1   
    38    20    25 1   
    39    20    43 1   
    40    21    22 1   
    41    21    44 1   
    42    21    45 1   
    43    22    23 1   
    44    22    46 1   
    45    22    47 1   
    46    23    24 1   
    47    23    26 1   
    48    24    25 1   
    49    24    48 1   
    50    24    49 1   
    51    25    50 1   
    52    25    51 1   
    53    26    27 1   
    54    26    29 1   
    55    26    52 1   
    56    27    28 1   
    57    27    53 1   
    58    27    54 1   
    59    28    29 1   
    60    29    55 1   
    61    29    56 1   
@<TRIPOS>SUBSTRUCTURE
     1 50F         1 TEMP              0 ****  ****    0 ROOT
