@<TRIPOS>MOLECULE
50H
   48    51     1     0     0
SMALL
No Charge or Current Charge


@<TRIPOS>ATOM
      1 N2          -1.0910     0.4950    -0.0800 nc         1 50H      -0.765000
      2 C6          -3.4220     1.3310     0.1110 cd         1 50H      -0.216000
      3 C9          -1.8730    -4.5480     1.0920 c          1 50H       0.617700
      4 C13         -2.2470    -2.1180     0.5100 ca         1 50H      -0.018000
      5 C20          3.0210    -0.7330    -1.0840 ca         1 50H      -0.142000
      6 C18          4.2420    -0.1950    -0.6220 ca         1 50H       0.087100
      7 C16          4.2460     1.0650     0.0230 ca         1 50H       0.138100
      8 C26         -3.9420    -3.7240    -0.1730 ca         1 50H      -0.077000
      9 C27         -4.6810    -2.6840    -0.7550 ca         1 50H      -0.125000
     10 C25         -4.2130    -1.3620    -0.7020 ca         1 50H      -0.079000
     11 C22          1.8220    -0.0230    -0.8960 ca         1 50H      -0.125000
     12 C15          3.0320     1.7670     0.2030 ca         1 50H      -0.226000
     13 C12         -2.5940     4.7100     0.3340 cc         1 50H      -0.046400
     14 C14         -3.6010     3.7610     0.3030 cd         1 50H      -0.263100
     15 C10         -2.9990    -1.0580    -0.0470 ca         1 50H      -0.145500
     16 C11         -2.7080    -3.4530     0.4640 ca         1 50H      -0.161600
     17 C17          1.8180     1.2240    -0.2410 ca         1 50H       0.299000
     18 C3          -1.5660     2.8390     0.0960 cd         1 50H      -0.181000
     19 C5          -2.4710     0.3160    -0.0210 cc         1 50H       0.426500
     20 C1          -0.6720     1.7420    -0.0310 cd         1 50H       0.688900
     21 C29          5.5340    -2.1470    -1.4310 c3         1 50H       0.144900
     22 C28          5.5640     2.8470     1.1290 c3         1 50H       0.145900
     23 N7          -1.3410     4.1410     0.2080 nc         1 50H      -0.283600
     24 N4          -2.8900     2.6070     0.1280 na         1 50H       0.169100
     25 N21         -2.3290    -5.8170     1.0310 nt         1 50H      -0.604000
     26 N8           0.6630     1.9810    -0.0390 nu         1 50H      -0.914900
     27 O19         -0.8100    -4.3290     1.6490 o          1 50H      -0.601100
     28 O23          5.4560     1.5770     0.4620 os         1 50H      -0.320100
     29 H1          -4.4920     1.2100     0.1990 h4         1 50H       0.153000
     30 H2          -1.2970    -1.8980     0.9940 ha         1 50H       0.156000
     31 H3           2.9810    -1.6920    -1.5930 ha         1 50H       0.128000
     32 H4          -4.3360    -4.7360    -0.2340 ha         1 50H       0.112000
     33 H5          -5.6210    -2.9040    -1.2570 ha         1 50H       0.117000
     34 H6          -4.7960    -0.5810    -1.1850 ha         1 50H       0.113000
     35 H7           0.9010    -0.4480    -1.2800 ha         1 50H       0.154000
     36 H8           3.0190     2.7330     0.6970 ha         1 50H       0.117000
     37 H9          -2.6930     5.7870     0.4500 h4         1 50H       0.230000
     38 H10         -4.6810     3.8220     0.3820 h4         1 50H       0.234000
     39 H11          4.9400    -2.8960    -0.8910 h1         1 50H       0.039367
     40 H12          5.1760    -2.0900    -2.4660 h1         1 50H       0.039367
     41 H13          6.5760    -2.4890    -1.4500 h1         1 50H       0.039367
     42 H14          5.2080     3.6590     0.4810 h1         1 50H       0.039700
     43 H15          4.9770     2.8520     2.0560 h1         1 50H       0.039700
     44 H16          6.6100     3.0520     1.3870 h1         1 50H       0.039700
     45 H17         -1.7820    -6.5560     1.4460 hn         1 50H       0.313500
     46 H18         -3.2050    -6.0210     0.5750 hn         1 50H       0.313500
     47 H19          0.8280     2.9550     0.1960 hn         1 50H       0.522000
     48 O24          5.4450    -0.8630    -0.7870 os         1 50H      -0.322100
@<TRIPOS>BOND
     1     1    19 1   
     2     1    20 2   
     3     2    19 2   
     4     2    24 1   
     5     2    29 1   
     6     3    16 1   
     7     3    25 1   
     8     3    27 2   
     9     4    15 ar  
    10     4    16 ar  
    11     4    30 1   
    12     5     6 ar  
    13     5    11 ar  
    14     5    31 1   
    15     6     7 ar  
    16     6    48 1   
    17     7    12 ar  
    18     7    28 1   
    19     8     9 ar  
    20     8    16 ar  
    21     8    32 1   
    22     9    10 ar  
    23     9    33 1   
    24    10    15 ar  
    25    10    34 1   
    26    11    17 ar  
    27    11    35 1   
    28    12    17 ar  
    29    12    36 1   
    30    13    14 2   
    31    13    23 1   
    32    13    37 1   
    33    14    24 1   
    34    14    38 1   
    35    15    19 1   
    36    17    26 1   
    37    18    20 1   
    38    18    23 2   
    39    18    24 1   
    40    20    26 1   
    41    21    39 1   
    42    21    40 1   
    43    21    41 1   
    44    21    48 1   
    45    22    28 1   
    46    22    42 1   
    47    22    43 1   
    48    22    44 1   
    49    25    45 1   
    50    25    46 1   
    51    26    47 1   
@<TRIPOS>SUBSTRUCTURE
     1 50H         1 TEMP              0 ****  ****    0 ROOT
