@<TRIPOS>MOLECULE
50H
   48    51     1     0     0
SMALL
bcc


@<TRIPOS>ATOM
      1 N2          -1.1740     0.5420    -0.0180 nc         1 50H      -0.765000
      2 C6          -3.4150     1.3520     0.2050 cd         1 50H      -0.248600
      3 C9          -1.5370    -4.4880     0.3570 c          1 50H       0.684700
      4 C13         -2.1220    -2.0970     0.1360 ca         1 50H      -0.036000
      5 C20          2.8440    -0.9070    -0.4480 ca         1 50H      -0.160000
      6 C18          4.0870    -0.3130    -0.3440 ca         1 50H       0.087100
      7 C16          4.1520     1.0710    -0.0760 ca         1 50H       0.138100
      8 C26         -3.7880    -3.7020    -0.5170 ca         1 50H      -0.095000
      9 C27         -4.6410    -2.6620    -0.8570 ca         1 50H      -0.143000
     10 C25         -4.2420    -1.3450    -0.6920 ca         1 50H      -0.097000
     11 C22          1.6640    -0.1770    -0.2960 ca         1 50H      -0.143000
     12 C15          2.9870     1.7960     0.0780 ca         1 50H      -0.244000
     13 C12         -2.4980     4.7310     0.6760 cc         1 50H       0.003600
     14 C14         -3.5200     3.8180     0.5830 cd         1 50H      -0.213100
     15 C10         -2.9770    -1.0470    -0.1850 ca         1 50H      -0.145500
     16 C11         -2.5220    -3.4210    -0.0110 ca         1 50H      -0.161600
     17 C17          1.7290     1.1820    -0.0300 ca         1 50H       0.160600
     18 C3          -1.5660     2.8600     0.3490 cd         1 50H      -0.195600
     19 C5          -2.5250     0.3460     0.0030 cc         1 50H       0.491800
     20 C1          -0.6950     1.7410     0.1480 cd         1 50H       0.754200
     21 C29          5.2520    -2.3320    -0.7340 c3         1 50H       0.121700
     22 C28          5.5240     2.9700     0.2720 c3         1 50H       0.122700
     23 N7          -1.2910     4.1330     0.5310 nc         1 50H      -0.283600
     24 N4          -2.9090     2.6180     0.3720 na         1 50H       0.067700
     25 N21         -2.0490    -5.6970     0.6340 nt         1 50H      -0.671000
     26 N8           0.6280     2.0210     0.1390 nu         1 50H      -0.721300
     27 O19         -0.3380    -4.2500     0.3930 o          1 50H      -0.601100
     28 O23          5.3900     1.5880     0.0110 os         1 50H      -0.296900
     29 H1          -4.4860     1.2380     0.2640 h4         1 50H       0.171000
     30 H2          -1.1370    -1.8790     0.5240 ha         1 50H       0.174000
     31 H3           2.7580    -1.9660    -0.6530 ha         1 50H       0.146000
     32 H4          -4.1150    -4.7210    -0.6800 ha         1 50H       0.130000
     33 H5          -5.6160    -2.8800    -1.2700 ha         1 50H       0.135000
     34 H6          -4.9170    -0.5500    -0.9850 ha         1 50H       0.131000
     35 H7           0.7170    -0.6800    -0.3960 ha         1 50H       0.172000
     36 H8           3.0340     2.8570     0.2850 ha         1 50H       0.135000
     37 H9          -2.5910     5.7930     0.8410 h4         1 50H       0.180000
     38 H10         -4.5900     3.9180     0.6450 h4         1 50H       0.184000
     39 H11          4.7690    -2.8900     0.0730 h1         1 50H       0.039367
     40 H12          4.7460    -2.5710    -1.6750 h1         1 50H       0.039367
     41 H13          6.2890    -2.6480    -0.8060 h1         1 50H       0.039367
     42 H14          5.0800     3.5800    -0.5190 h1         1 50H       0.039700
     43 H15          5.0730     3.2500     1.2280 h1         1 50H       0.039700
     44 H16          6.5910     3.1740     0.3150 h1         1 50H       0.039700
     45 H17         -1.4330    -6.4440     0.9120 hn         1 50H       0.313500
     46 H18         -3.0340    -5.8560     0.7470 hn         1 50H       0.313500
     47 H19          0.8460     2.9950     0.2930 hn         1 50H       0.466800
     48 O24          5.2710    -0.9440    -0.4800 os         1 50H      -0.298900
@<TRIPOS>BOND
     1     1    19 1   
     2     1    20 2   
     3     2    19 2   
     4     2    24 1   
     5     2    29 1   
     6     3    16 1   
     7     3    25 1   
     8     3    27 2   
     9     4    15 ar  
    10     4    16 ar  
    11     4    30 1   
    12     5     6 ar  
    13     5    11 ar  
    14     5    31 1   
    15     6     7 ar  
    16     6    48 1   
    17     7    12 ar  
    18     7    28 1   
    19     8     9 ar  
    20     8    16 ar  
    21     8    32 1   
    22     9    10 ar  
    23     9    33 1   
    24    10    15 ar  
    25    10    34 1   
    26    11    17 ar  
    27    11    35 1   
    28    12    17 ar  
    29    12    36 1   
    30    13    14 2   
    31    13    23 1   
    32    13    37 1   
    33    14    24 1   
    34    14    38 1   
    35    15    19 1   
    36    17    26 1   
    37    18    20 1   
    38    18    23 2   
    39    18    24 1   
    40    20    26 1   
    41    21    39 1   
    42    21    40 1   
    43    21    41 1   
    44    21    48 1   
    45    22    28 1   
    46    22    42 1   
    47    22    43 1   
    48    22    44 1   
    49    25    45 1   
    50    25    46 1   
    51    26    47 1   
@<TRIPOS>SUBSTRUCTURE
     1 50H         1 TEMP              0 ****  ****    0 ROOT
