@<TRIPOS>MOLECULE
50I
   52    55     1     0     0
SMALL
No Charge or Current Charge


@<TRIPOS>ATOM
      1 C4           3.3930    -1.8760    -1.8020 c3         1 50I      -0.092900
      2 C5           1.8870    -2.2150    -1.7540 c3         1 50I       0.230300
      3 C6           1.6570    -3.2580     0.5010 c3         1 50I       0.230300
      4 C11          0.7640     0.8420    -0.0320 cc         1 50I      -0.006700
      5 C7          -0.0140    -1.5930    -0.3020 ca         1 50I       0.706900
      6 C10         -2.2240    -2.0560    -0.3770 ca         1 50I       0.705900
      7 N3          -0.9860    -2.5290    -0.4210 nb         1 50I      -0.868000
      8 C1           2.9040    -2.9720     1.3640 c3         1 50I      -0.092900
      9 C2           4.1220    -2.3300     0.6490 c3         1 50I      -0.071900
     10 C15          1.8210     2.8260     0.1710 ca         1 50I      -0.113800
     11 C16          0.5550     2.2100    -0.0590 cd         1 50I      -0.216200
     12 C17          4.0590     2.0230     0.5890 ca         1 50I      -0.107000
     13 C18          4.4960     3.3650     0.6630 ca         1 50I      -0.093000
     14 C19          3.5780     4.4310     0.4900 ca         1 50I      -0.132000
     15 C20          2.2140     4.1670     0.2390 ca         1 50I      -0.060000
     16 O1          -4.9570    -1.0090    -0.4340 o          1 50I      -0.585100
     17 N5          -4.2030     1.1090    -0.0550 ns         1 50I      -0.434400
     18 C13         -5.3580     1.8230    -0.0620 c2         1 50I       0.658800
     19 N7          -6.3140     1.6820    -0.8650 n2         1 50I      -0.825100
     20 N6          -5.1960     2.8950     0.7200 nv         1 50I      -1.080200
     21 C9          -2.5660    -0.6750    -0.2500 ca         1 50I       0.077500
     22 N2          -1.5850     0.2810    -0.1350 nb         1 50I      -0.581000
     23 N4          -3.0420    -3.1040    -0.4840 nv         1 50I      -1.056900
     24 N1           1.2700    -2.1630    -0.4130 nh         1 50I      -0.758300
     25 C3           4.3060    -2.6880    -0.8460 c3         1 50I      -0.071900
     26 C8          -0.2950    -0.1790    -0.1520 ca         1 50I       0.230800
     27 C14          2.7010     1.7850     0.3390 ca         1 50I       0.056100
     28 O2           2.0990     0.5460     0.2380 os         1 50I      -0.175200
     29 H1           3.7400    -2.0340    -2.8300 hc         1 50I       0.051700
     30 H2           3.5250    -0.8070    -1.6010 hc         1 50I       0.051700
     31 H3           1.3680    -1.5170    -2.4260 h1         1 50I       0.055450
     32 H4           1.7430    -3.2180    -2.1790 h1         1 50I       0.055450
     33 H5           1.8410    -4.1710    -0.0820 h1         1 50I       0.055450
     34 H6           0.8310    -3.5000     1.1850 h1         1 50I       0.055450
     35 H7           2.6120    -2.3190     2.1950 hc         1 50I       0.051700
     36 H8           3.2190    -3.9190     1.8180 hc         1 50I       0.051700
     37 H9           4.0590    -1.2400     0.7450 hc         1 50I       0.040950
     38 H10          5.0270    -2.6220     1.1940 hc         1 50I       0.040950
     39 H11         -0.3960     2.7120    -0.2150 ha         1 50I       0.220000
     40 H12          4.7540     1.1980     0.7210 ha         1 50I       0.129000
     41 H13          5.5450     3.5800     0.8550 ha         1 50I       0.115000
     42 H14          3.9270     5.4590     0.5500 ha         1 50I       0.114000
     43 H15          1.4970     4.9740     0.1040 ha         1 50I       0.120000
     44 H16         -3.3560     1.6320     0.0990 hn         1 50I       0.351500
     45 H17         -6.9750     2.4520    -0.7200 hn         1 50I       0.378400
     46 H18         -4.6620     2.7100     1.5620 hn         1 50I       0.458000
     47 H19         -6.0390     3.4340     0.8850 hn         1 50I       0.458000
     48 H20         -2.5970    -3.9240    -0.8750 hn         1 50I       0.516500
     49 H21         -3.9990    -2.9090    -0.7680 hn         1 50I       0.516500
     50 H22          4.1610    -3.7640    -1.0010 hc         1 50I       0.040950
     51 H23          5.3480    -2.4750    -1.1180 hc         1 50I       0.040950
     52 C12         -4.0200    -0.2370    -0.2610 c          1 50I       0.559600
@<TRIPOS>BOND
     1     1     2 1   
     2     1    25 1   
     3     1    29 1   
     4     1    30 1   
     5     2    24 1   
     6     2    31 1   
     7     2    32 1   
     8     3     8 1   
     9     3    24 1   
    10     3    33 1   
    11     3    34 1   
    12     4    11 2   
    13     4    26 1   
    14     4    28 1   
    15     5     7 ar  
    16     5    24 1   
    17     5    26 ar  
    18     6     7 ar  
    19     6    21 ar  
    20     6    23 1   
    21     8     9 1   
    22     8    35 1   
    23     8    36 1   
    24     9    25 1   
    25     9    37 1   
    26     9    38 1   
    27    10    11 1   
    28    10    15 ar  
    29    10    27 ar  
    30    11    39 1   
    31    12    13 ar  
    32    12    27 ar  
    33    12    40 1   
    34    13    14 ar  
    35    13    41 1   
    36    14    15 ar  
    37    14    42 1   
    38    15    43 1   
    39    16    52 2   
    40    17    18 1   
    41    17    44 1   
    42    17    52 1   
    43    18    19 2   
    44    18    20 1   
    45    19    45 1   
    46    20    46 1   
    47    20    47 1   
    48    21    22 ar  
    49    21    52 1   
    50    22    26 ar  
    51    23    48 1   
    52    23    49 1   
    53    25    50 1   
    54    25    51 1   
    55    27    28 1   
@<TRIPOS>SUBSTRUCTURE
     1 50I         1 TEMP              0 ****  ****    0 ROOT
