@<TRIPOS>MOLECULE
50I
   52    55     1     0     0
SMALL
abcg2


@<TRIPOS>ATOM
      1 C4           3.7110    -1.3260    -0.5230 c3         1 50I      -0.092900
      2 C5           2.4870    -1.3550    -1.4330 c3         1 50I       0.230300
      3 C6           1.5550    -3.5510    -0.9260 c3         1 50I       0.230300
      4 C11          0.7320     0.9450    -0.4460 cc         1 50I      -0.006700
      5 C7           0.1930    -1.6060    -0.4480 ca         1 50I       0.706900
      6 C10         -1.9750    -2.1660     0.1660 ca         1 50I       0.705900
      7 N3          -0.7240    -2.5090    -0.1120 nb         1 50I      -0.868000
      8 C1           2.0700    -4.1290     0.3840 c3         1 50I      -0.092900
      9 C2           3.2000    -3.3100     1.0140 c3         1 50I      -0.071900
     10 C15          1.7680     2.8860    -0.8050 ca         1 50I      -0.113800
     11 C16          0.6910     2.0420    -1.2360 cd         1 50I      -0.216200
     12 C17          3.4820     2.6740     0.9350 ca         1 50I      -0.107000
     13 C18          3.9720     3.9070     0.5330 ca         1 50I      -0.093000
     14 C19          3.3780     4.6220    -0.5150 ca         1 50I      -0.132000
     15 C20          2.2790     4.1260    -1.1930 ca         1 50I      -0.060000
     16 O1          -4.6640    -1.0790     0.5440 o          1 50I      -0.585100
     17 N5          -3.8470     1.0360     0.2210 ns         1 50I      -0.434400
     18 C13         -4.9950     1.8180     0.3340 c2         1 50I       0.658800
     19 N7          -6.1570     1.3260     0.1760 n2         1 50I      -0.825100
     20 N6          -4.6730     3.1380     0.5410 nv         1 50I      -1.080200
     21 C9          -2.3580    -0.8010     0.0890 ca         1 50I       0.077500
     22 N2          -1.4150     0.1010    -0.1290 nb         1 50I      -0.581000
     23 N4          -2.8090    -3.1470     0.5220 nv         1 50I      -1.056900
     24 N1           1.3620    -2.1050    -0.8930 nh         1 50I      -0.758300
     25 C3           4.1790    -2.6770     0.0190 c3         1 50I      -0.071900
     26 C8          -0.1610    -0.2100    -0.3520 ca         1 50I       0.230800
     27 C14          2.3800     2.1990     0.2460 ca         1 50I       0.056100
     28 O2           1.7390     1.0300     0.4710 os         1 50I      -0.175200
     29 H1           4.5190    -0.8630    -1.0970 hc         1 50I       0.051700
     30 H2           3.5220    -0.6670     0.3240 hc         1 50I       0.051700
     31 H3           2.1840    -0.3470    -1.7020 h1         1 50I       0.055450
     32 H4           2.7530    -1.8340    -2.3800 h1         1 50I       0.055450
     33 H5           2.2850    -3.7440    -1.7130 h1         1 50I       0.055450
     34 H6           0.6320    -4.0450    -1.2230 h1         1 50I       0.055450
     35 H7           1.2490    -4.2290     1.0980 hc         1 50I       0.051700
     36 H8           2.4190    -5.1430     0.1700 hc         1 50I       0.051700
     37 H9           2.7720    -2.5130     1.6300 hc         1 50I       0.040950
     38 H10          3.7460    -3.9550     1.7060 hc         1 50I       0.040950
     39 H11         -0.0090     2.2140    -2.0370 ha         1 50I       0.220000
     40 H12          3.9360     2.1160     1.7430 ha         1 50I       0.129000
     41 H13          4.8320     4.3250     1.0410 ha         1 50I       0.115000
     42 H14          3.7910     5.5820    -0.7970 ha         1 50I       0.114000
     43 H15          1.8270     4.6860    -2.0020 ha         1 50I       0.120000
     44 H16         -2.9710     1.5170     0.0570 hn         1 50I       0.351500
     45 H17         -6.8620     2.0390     0.3310 hn         1 50I       0.378400
     46 H18         -3.8560     3.3290     1.1010 hn         1 50I       0.458000
     47 H19         -5.4460     3.7410     0.7740 hn         1 50I       0.458000
     48 H20         -2.4890    -4.0990     0.4740 hn         1 50I       0.516500
     49 H21         -3.7890    -2.9570     0.6410 hn         1 50I       0.516500
     50 H22          4.4010    -3.3690    -0.8000 hc         1 50I       0.040950
     51 H23          5.1310    -2.5080     0.5280 hc         1 50I       0.040950
     52 C12         -3.7360    -0.3210     0.3060 c          1 50I       0.559600
@<TRIPOS>BOND
     1     1     2 1   
     2     1    25 1   
     3     1    29 1   
     4     1    30 1   
     5     2    24 1   
     6     2    31 1   
     7     2    32 1   
     8     3     8 1   
     9     3    24 1   
    10     3    33 1   
    11     3    34 1   
    12     4    11 2   
    13     4    26 1   
    14     4    28 1   
    15     5     7 ar  
    16     5    24 1   
    17     5    26 ar  
    18     6     7 ar  
    19     6    21 ar  
    20     6    23 1   
    21     8     9 1   
    22     8    35 1   
    23     8    36 1   
    24     9    25 1   
    25     9    37 1   
    26     9    38 1   
    27    10    11 1   
    28    10    15 ar  
    29    10    27 ar  
    30    11    39 1   
    31    12    13 ar  
    32    12    27 ar  
    33    12    40 1   
    34    13    14 ar  
    35    13    41 1   
    36    14    15 ar  
    37    14    42 1   
    38    15    43 1   
    39    16    52 2   
    40    17    18 1   
    41    17    44 1   
    42    17    52 1   
    43    18    19 2   
    44    18    20 1   
    45    19    45 1   
    46    20    46 1   
    47    20    47 1   
    48    21    22 ar  
    49    21    52 1   
    50    22    26 ar  
    51    23    48 1   
    52    23    49 1   
    53    25    50 1   
    54    25    51 1   
    55    27    28 1   
@<TRIPOS>SUBSTRUCTURE
     1 50I         1 TEMP              0 ****  ****    0 ROOT
