@<TRIPOS>MOLECULE
50J
   65    69     1     0     0
SMALL
No Charge or Current Charge


@<TRIPOS>ATOM
      1 C1          10.9550    -1.0330     0.1650 c3         1 50J       0.095300
      2 C3           8.5360    -0.3490     0.1380 c          1 50J       0.613700
      3 O4           8.8230     0.8400     0.1740 o          1 50J      -0.603100
      4 C7           5.4200    -2.6110     0.0220 ca         1 50J      -0.164000
      5 C8           4.3770    -1.6690     0.0310 ca         1 50J       0.004000
      6 C10          1.8050    -1.5380     0.0650 c          1 50J       0.622700
      7 C12          0.5960    -2.4530    -0.0370 ca         1 50J      -0.164600
      8 C13          0.7230    -3.8520    -0.1960 ca         1 50J      -0.079000
      9 C14         -0.4200    -4.6570    -0.2850 ca         1 50J      -0.123000
     10 C15         -1.7020    -4.0910    -0.2180 ca         1 50J      -0.076000
     11 C16         -1.8720    -2.6950    -0.0590 ca         1 50J      -0.141500
     12 C19         -4.4000    -2.8530    -0.0720 cc         1 50J      -0.212000
     13 C21         -6.8230    -2.7550    -0.0720 cc         1 50J      -0.262100
     14 C22         -7.6720    -1.6680     0.0400 cd         1 50J      -0.045400
     15 N23         -6.9520    -0.4810     0.1820 nd         1 50J      -0.281600
     16 C24         -5.6770    -0.8450     0.1570 cc         1 50J      -0.180000
     17 N26         -4.5570     1.2050     0.3790 nu         1 50J      -0.915900
     18 C27         -3.6320     2.2450     0.3730 ca         1 50J       0.300000
     19 C30         -1.8170     4.4150     0.3500 ca         1 50J       0.091100
     20 C32          0.3340     5.4770     0.9620 c3         1 50J       0.144900
     21 C33         -3.0600     4.5170    -0.3210 ca         1 50J       0.140100
     22 C35         -4.5890     5.8950    -1.6990 c3         1 50J       0.145900
     23 N2           9.5180    -1.3150     0.1320 ns         1 50J      -0.505900
     24 C5           7.1000    -0.8320     0.1000 ca         1 50J      -0.180600
     25 C6           6.7650    -2.2060     0.0570 ca         1 50J      -0.044000
     26 O11          1.6710    -0.3270     0.2090 o          1 50J      -0.567100
     27 C17         -0.7020    -1.8940     0.0290 ca         1 50J      -0.017000
     28 C18         -3.2300    -2.0750     0.0160 cd         1 50J       0.424500
     29 N20         -5.5980    -2.1680     0.0160 na         1 50J       0.167100
     30 C25         -4.4570    -0.1430     0.2440 cc         1 50J       0.691900
     31 C28         -2.4050     2.1530     1.0530 ca         1 50J      -0.125000
     32 C29         -1.4970     3.2250     1.0420 ca         1 50J      -0.145000
     33 O31         -0.9500     5.4940     0.3140 os         1 50J      -0.321100
     34 O34         -3.3550     5.6960    -0.9870 os         1 50J      -0.319100
     35 C36         -3.9630     3.4290    -0.3000 ca         1 50J      -0.223000
     36 N37         -3.2620    -0.6750     0.1780 nd         1 50J      -0.770000
     37 C38          4.7070    -0.2990     0.0700 ca         1 50J      -0.164000
     38 C39          6.0510     0.1120     0.1050 ca         1 50J      -0.044000
     39 H1          11.2350    -0.4340    -0.7110 h1         1 50J       0.040033
     40 H2          11.2020    -0.4800     1.0800 h1         1 50J       0.040033
     41 H3          11.5150    -1.9770     0.1510 h1         1 50J       0.040033
     42 H4           5.1890    -3.6740    -0.0110 ha         1 50J       0.132000
     43 H5           1.6950    -4.3350    -0.2530 ha         1 50J       0.113000
     44 H6          -0.3130    -5.7330    -0.4080 ha         1 50J       0.119000
     45 H7          -2.5500    -4.7630    -0.2910 ha         1 50J       0.115000
     46 H8          -4.4590    -3.9220    -0.1980 h4         1 50J       0.153000
     47 H9          -6.9910    -3.8190    -0.1980 h4         1 50J       0.235000
     48 H10         -8.7610    -1.6710     0.0240 h4         1 50J       0.231000
     49 H11         -5.5200     1.4830     0.2140 hn         1 50J       0.523000
     50 H12          0.2230     5.3280     2.0440 h1         1 50J       0.039700
     51 H13          0.9650     4.6740     0.5580 h1         1 50J       0.039700
     52 H14          0.8540     6.4300     0.8020 h1         1 50J       0.039700
     53 H15         -4.6110     6.8960    -2.1480 h1         1 50J       0.040033
     54 H16         -4.6980     5.1580    -2.5050 h1         1 50J       0.040033
     55 H17         -5.4490     5.8080    -1.0220 h1         1 50J       0.040033
     56 H18          9.2160    -2.2800     0.1010 hn         1 50J       0.314500
     57 H19          7.5330    -2.9760     0.0490 ha         1 50J       0.124000
     58 H20          2.9910    -3.1670    -0.1130 hn         1 50J       0.154000
     59 H21         -0.7930    -0.8160     0.1500 ha         1 50J       0.159000
     60 H22         -2.1560     1.2490     1.6000 ha         1 50J       0.147000
     61 H23         -0.5570     3.1140     1.5750 ha         1 50J       0.124000
     62 H24         -4.9190     3.4880    -0.8100 ha         1 50J       0.119000
     63 H25          3.9400     0.4690     0.0690 ha         1 50J       0.132000
     64 H26          6.2720     1.1780     0.1350 ha         1 50J       0.124000
     65 N9           3.0440    -2.1640    -0.0090 ns         1 50J      -0.144000
@<TRIPOS>BOND
     1     1    23 1   
     2     1    39 1   
     3     1    40 1   
     4     1    41 1   
     5     2     3 2   
     6     2    23 1   
     7     2    24 1   
     8     4     5 ar  
     9     4    25 ar  
    10     4    42 1   
    11     5    37 ar  
    12     5    65 1   
    13     6     7 1   
    14     6    26 2   
    15     6    65 1   
    16     7     8 ar  
    17     7    27 ar  
    18     8     9 ar  
    19     8    43 1   
    20     9    10 ar  
    21     9    44 1   
    22    10    11 ar  
    23    10    45 1   
    24    11    27 ar  
    25    11    28 1   
    26    12    28 2   
    27    12    29 1   
    28    12    46 1   
    29    13    14 2   
    30    13    29 1   
    31    13    47 1   
    32    14    15 1   
    33    14    48 1   
    34    15    16 2   
    35    16    29 1   
    36    16    30 1   
    37    17    18 1   
    38    17    30 1   
    39    17    49 1   
    40    18    31 ar  
    41    18    35 ar  
    42    19    21 ar  
    43    19    32 ar  
    44    19    33 1   
    45    20    33 1   
    46    20    50 1   
    47    20    51 1   
    48    20    52 1   
    49    21    34 1   
    50    21    35 ar  
    51    22    34 1   
    52    22    53 1   
    53    22    54 1   
    54    22    55 1   
    55    23    56 1   
    56    24    25 ar  
    57    24    38 ar  
    58    25    57 1   
    59    27    59 1   
    60    28    36 1   
    61    30    36 2   
    62    31    32 ar  
    63    31    60 1   
    64    32    61 1   
    65    35    62 1   
    66    37    38 ar  
    67    37    63 1   
    68    38    64 1   
    69    58    65 1   
@<TRIPOS>SUBSTRUCTURE
     1 50J         1 TEMP              0 ****  ****    0 ROOT
