@<TRIPOS>MOLECULE
50J
   65    69     1     0     0
SMALL
bcc


@<TRIPOS>ATOM
      1 C1          10.5210    -0.4430     0.2230 c3         1 50J       0.095300
      2 C3           8.1330    -0.0820    -0.1060 c          1 50J       0.680700
      3 O4           8.3100     1.0810    -0.4500 o          1 50J      -0.603100
      4 C7           5.1410    -2.2420     0.7990 ca         1 50J      -0.182000
      5 C8           4.1360    -1.6670     0.0160 ca         1 50J       0.096600
      6 C10          1.7100    -1.8650    -0.4900 c          1 50J       0.689700
      7 C12          0.5280    -2.7240    -0.1730 ca         1 50J      -0.164600
      8 C13          0.6320    -4.0710     0.1640 ca         1 50J      -0.097000
      9 C14         -0.5160    -4.8030     0.4290 ca         1 50J      -0.141000
     10 C15         -1.7620    -4.2030     0.3660 ca         1 50J      -0.094000
     11 C16         -1.8860    -2.8590     0.0130 ca         1 50J      -0.141500
     12 C19         -4.3410    -2.9020    -0.2690 cc         1 50J      -0.244600
     13 C21         -6.8070    -2.6050    -0.5210 cc         1 50J      -0.212100
     14 C22         -7.5520    -1.4520    -0.5160 cd         1 50J       0.004600
     15 N23         -6.7680    -0.3610    -0.3420 nd         1 50J      -0.281600
     16 C24         -5.5470    -0.8370    -0.2410 cc         1 50J      -0.194600
     17 N26         -4.3630     1.1860     0.0180 nu         1 50J      -0.722300
     18 C27         -3.3450     2.1300     0.1600 ca         1 50J       0.161600
     19 C30         -1.4620     4.1970     0.4220 ca         1 50J       0.091100
     20 C32          0.7160     5.0060     0.8560 c3         1 50J       0.121700
     21 C33         -2.7960     4.4910     0.0710 ca         1 50J       0.140100
     22 C35         -4.3820     6.1510    -0.5120 c3         1 50J       0.122700
     23 N2           9.1480    -0.8910     0.2290 ns         1 50J      -0.572900
     24 C5           6.7630    -0.6700    -0.0450 ca         1 50J      -0.180600
     25 C6           6.4310    -1.7530     0.7670 ca         1 50J      -0.062000
     26 O11          1.6080    -0.9000    -1.2250 o          1 50J      -0.567100
     27 C17         -0.7290    -2.1340    -0.2590 ca         1 50J      -0.035000
     28 C18         -3.2000    -2.1910    -0.0760 cd         1 50J       0.489800
     29 N20         -5.5180    -2.1980    -0.3420 na         1 50J       0.065700
     30 C25         -4.2970    -0.1620    -0.0580 cc         1 50J       0.757200
     31 C28         -2.0360     1.8410     0.5090 ca         1 50J      -0.143000
     32 C29         -1.1100     2.8780     0.6350 ca         1 50J      -0.163000
     33 O31         -0.6320     5.2550     0.5180 os         1 50J      -0.297900
     34 O34         -3.0710     5.7920    -0.1260 os         1 50J      -0.295900
     35 C36         -3.7140     3.4670    -0.0570 ca         1 50J      -0.241000
     36 N37         -3.1830    -0.8300     0.0240 nd         1 50J      -0.770000
     37 C38          4.4580    -0.5790    -0.7970 ca         1 50J      -0.182000
     38 C39          5.7550    -0.0920    -0.8090 ca         1 50J      -0.062000
     39 H1          10.8450    -0.1350    -0.7720 h1         1 50J       0.040033
     40 H2          10.6700     0.3940     0.9050 h1         1 50J       0.040033
     41 H3          11.1500    -1.2660     0.5490 h1         1 50J       0.040033
     42 H4           4.9080    -3.0800     1.4450 ha         1 50J       0.150000
     43 H5           1.5900    -4.5740     0.2060 ha         1 50J       0.131000
     44 H6          -0.4350    -5.8490     0.6920 ha         1 50J       0.137000
     45 H7          -2.6380    -4.7910     0.6100 ha         1 50J       0.133000
     46 H8          -4.4030    -3.9720    -0.3880 h4         1 50J       0.171000
     47 H9          -7.0750    -3.6420    -0.6320 h4         1 50J       0.185000
     48 H10         -8.6220    -1.3710    -0.6280 h4         1 50J       0.181000
     49 H11         -5.2900     1.5650    -0.1050 hn         1 50J       0.467800
     50 H12          0.8130     4.5470     1.8440 h1         1 50J       0.039700
     51 H13          1.2090     4.3630     0.1220 h1         1 50J       0.039700
     52 H14          1.2160     5.9710     0.8690 h1         1 50J       0.039700
     53 H15         -4.3800     7.2290    -0.6470 h1         1 50J       0.040033
     54 H16         -4.6720     5.6780    -1.4540 h1         1 50J       0.040033
     55 H17         -5.1190     5.8930     0.2530 h1         1 50J       0.040033
     56 H18          8.9760    -1.8700     0.3830 hn         1 50J       0.314500
     57 H19          7.1670    -2.2200     1.4100 ha         1 50J       0.142000
     58 H20          2.8060    -2.9980     0.7760 hn         1 50J       0.320500
     59 H21         -0.8110    -1.0930    -0.5370 ha         1 50J       0.177000
     60 H22         -1.7190     0.8280     0.6900 ha         1 50J       0.165000
     61 H23         -0.0970     2.6160     0.9080 ha         1 50J       0.142000
     62 H24         -4.7390     3.6850    -0.3320 ha         1 50J       0.137000
     63 H25          3.7150    -0.1050    -1.4160 ha         1 50J       0.150000
     64 H26          5.9810     0.7580    -1.4380 ha         1 50J       0.142000
     65 N9           2.8670    -2.2370     0.1170 ns         1 50J      -0.470100
@<TRIPOS>BOND
     1     1    23 1   
     2     1    39 1   
     3     1    40 1   
     4     1    41 1   
     5     2     3 2   
     6     2    23 1   
     7     2    24 1   
     8     4     5 ar  
     9     4    25 ar  
    10     4    42 1   
    11     5    37 ar  
    12     5    65 1   
    13     6     7 1   
    14     6    26 2   
    15     6    65 1   
    16     7     8 ar  
    17     7    27 ar  
    18     8     9 ar  
    19     8    43 1   
    20     9    10 ar  
    21     9    44 1   
    22    10    11 ar  
    23    10    45 1   
    24    11    27 ar  
    25    11    28 1   
    26    12    28 2   
    27    12    29 1   
    28    12    46 1   
    29    13    14 2   
    30    13    29 1   
    31    13    47 1   
    32    14    15 1   
    33    14    48 1   
    34    15    16 2   
    35    16    29 1   
    36    16    30 1   
    37    17    18 1   
    38    17    30 1   
    39    17    49 1   
    40    18    31 ar  
    41    18    35 ar  
    42    19    21 ar  
    43    19    32 ar  
    44    19    33 1   
    45    20    33 1   
    46    20    50 1   
    47    20    51 1   
    48    20    52 1   
    49    21    34 1   
    50    21    35 ar  
    51    22    34 1   
    52    22    53 1   
    53    22    54 1   
    54    22    55 1   
    55    23    56 1   
    56    24    25 ar  
    57    24    38 ar  
    58    25    57 1   
    59    27    59 1   
    60    28    36 1   
    61    30    36 2   
    62    31    32 ar  
    63    31    60 1   
    64    32    61 1   
    65    35    62 1   
    66    37    38 ar  
    67    37    63 1   
    68    38    64 1   
    69    58    65 1   
@<TRIPOS>SUBSTRUCTURE
     1 50J         1 TEMP              0 ****  ****    0 ROOT
