@<TRIPOS>MOLECULE
50K
   47    50     1     0     0
SMALL
No Charge or Current Charge


@<TRIPOS>ATOM
      1 N1           7.1200     1.0180    -1.4870 nv         1 50K      -1.032200
      2 N3           1.8110    -2.0400     0.5420 na         1 50K      -0.216700
      3 C4           5.2790    -0.7670    -0.0730 ca         1 50K      -0.063000
      4 C5           5.9700     1.4950    -0.9840 ce         1 50K       0.664800
      5 C6           2.5980    -0.0920    -0.2710 ca         1 50K      -0.117800
      6 C7           2.9520    -1.3210     0.2140 ca         1 50K      -0.027200
      7 C8           0.6700    -1.2560     0.2600 cc         1 50K      -0.143900
      8 C10         -0.7560    -1.5770     0.4370 ca         1 50K       0.433800
      9 C13         -2.5080    -3.1180     1.1130 ca         1 50K      -0.069000
     10 C15         -4.0200     0.2110    -0.1630 c6         1 50K       0.135700
     11 C17         -5.7930     1.8430     0.8230 c6         1 50K      -0.070400
     12 C20         -3.3500     1.4600    -0.8380 c6         1 50K      -0.078400
     13 O1          -4.9710    -0.3450    -1.0940 oh         1 50K      -0.654000
     14 C19         -4.3560     2.6030    -1.1390 c6         1 50K      -0.070400
     15 C18         -5.0940     3.0450     0.1470 c6         1 50K      -0.073400
     16 C16         -4.7900     0.6910     1.1100 c6         1 50K      -0.078400
     17 C11         -2.9880    -0.8980     0.2440 ca         1 50K       0.334300
     18 N4          -1.6650    -0.6330     0.0900 nb         1 50K      -0.674000
     19 C12         -3.4400    -2.1340     0.7510 ca         1 50K      -0.150000
     20 C14         -1.1460    -2.8290     0.9520 ca         1 50K      -0.166000
     21 C1           4.2940    -1.6950     0.3310 ca         1 50K      -0.137000
     22 C9           1.1570    -0.0540    -0.2410 cd         1 50K      -0.171200
     23 C2           3.5430     0.8560    -0.6810 ca         1 50K      -0.030000
     24 C3           4.9190     0.5090    -0.5990 ca         1 50K      -0.231900
     25 N2           5.7760     2.7470    -1.0120 n2         1 50K      -0.850100
     26 H1           7.0620     0.0840    -1.8720 hn         1 50K       0.466000
     27 H2           7.6420     1.6910    -2.0340 hn         1 50K       0.466000
     28 H3           1.8070    -2.9800     0.9230 hn         1 50K       0.350000
     29 H4           6.3270    -1.0420     0.0340 ha         1 50K       0.122000
     30 H5          -2.8340    -4.0790     1.5060 ha         1 50K       0.121000
     31 H6          -6.2610     2.1680     1.7620 hc         1 50K       0.043200
     32 H7          -6.6080     1.4790     0.1830 hc         1 50K       0.043200
     33 H8          -2.5650     1.8600    -0.1810 hc         1 50K       0.054700
     34 H9          -2.8460     1.1630    -1.7680 hc         1 50K       0.054700
     35 H10         -4.4690    -0.5840    -1.9030 ho         1 50K       0.442000
     36 H11         -3.8240     3.4610    -1.5720 hc         1 50K       0.043200
     37 H12         -5.0850     2.2790    -1.8940 hc         1 50K       0.043200
     38 H13         -5.8340     3.8200    -0.0940 hc         1 50K       0.039200
     39 H14         -4.3800     3.5000     0.8470 hc         1 50K       0.039200
     40 H15         -5.3320    -0.1490     1.5640 hc         1 50K       0.054700
     41 H16         -4.0660     1.0260     1.8650 hc         1 50K       0.054700
     42 H17         -4.5040    -2.3260     0.8560 ha         1 50K       0.138000
     43 H18         -0.4000    -3.5690     1.2230 ha         1 50K       0.115000
     44 H19          4.5730    -2.6680     0.7280 ha         1 50K       0.117000
     45 H20          0.5410     0.7840    -0.5590 ha         1 50K       0.222000
     46 H21          3.2150     1.8190    -1.0660 ha         1 50K       0.122000
     47 H22          4.8770     2.9340    -0.5500 hn         1 50K       0.386400
@<TRIPOS>BOND
     1     1     4 1   
     2     1    26 1   
     3     1    27 1   
     4     2     6 1   
     5     2     7 1   
     6     2    28 1   
     7     3    21 ar  
     8     3    24 ar  
     9     3    29 1   
    10     4    24 1   
    11     4    25 2   
    12     5     6 ar  
    13     5    22 1   
    14     5    23 ar  
    15     6    21 ar  
    16     7     8 1   
    17     7    22 2   
    18     8    18 ar  
    19     8    20 ar  
    20     9    19 ar  
    21     9    20 ar  
    22     9    30 1   
    23    10    12 1   
    24    10    13 1   
    25    10    16 1   
    26    10    17 1   
    27    11    15 1   
    28    11    16 1   
    29    11    31 1   
    30    11    32 1   
    31    12    14 1   
    32    12    33 1   
    33    12    34 1   
    34    13    35 1   
    35    14    15 1   
    36    14    36 1   
    37    14    37 1   
    38    15    38 1   
    39    15    39 1   
    40    16    40 1   
    41    16    41 1   
    42    17    18 ar  
    43    17    19 ar  
    44    19    42 1   
    45    20    43 1   
    46    21    44 1   
    47    22    45 1   
    48    23    24 ar  
    49    23    46 1   
    50    25    47 1   
@<TRIPOS>SUBSTRUCTURE
     1 50K         1 TEMP              0 ****  ****    0 ROOT
