@<TRIPOS>MOLECULE
50K
   47    50     1     0     0
SMALL
bcc


@<TRIPOS>ATOM
      1 N1           6.8940     1.1750    -1.2250 nv         1 50K      -0.921800
      2 N3           1.6230    -1.9820     0.3160 na         1 50K      -0.166400
      3 C4           5.0590    -0.7150    -0.0970 ca         1 50K      -0.081000
      4 C5           5.7800     1.6470    -0.5950 ce         1 50K       0.664800
      5 C6           2.3940     0.0720    -0.1210 ca         1 50K      -0.117800
      6 C7           2.7650    -1.2690     0.1280 ca         1 50K      -0.027200
      7 C8           0.5350    -1.1520     0.1900 cc         1 50K      -0.143900
      8 C10         -0.8420    -1.6180     0.3250 ca         1 50K       0.499100
      9 C13         -2.5030    -3.2810     0.7160 ca         1 50K      -0.087000
     10 C15         -4.0540     0.1240     0.0260 c6         1 50K       0.112500
     11 C17         -4.8870     2.3020     1.0360 c6         1 50K      -0.070400
     12 C20         -3.7200     0.8890    -1.2620 c6         1 50K      -0.078400
     13 O1          -5.3730    -0.3800    -0.0250 oh         1 50K      -0.591800
     14 C19         -4.6280     2.0990    -1.4590 c6         1 50K      -0.070400
     15 C18         -4.5600     3.0380    -0.2590 c6         1 50K      -0.073400
     16 C16         -3.9970     1.0770     1.2260 c6         1 50K      -0.078400
     17 C11         -3.0590    -1.0090     0.2410 ca         1 50K       0.399600
     18 N4          -1.7770    -0.6880     0.1510 nb         1 50K      -0.674000
     19 C12         -3.4720    -2.3080     0.5320 ca         1 50K      -0.233300
     20 C14         -1.1640    -2.9440     0.6100 ca         1 50K      -0.249300
     21 C1           4.0980    -1.6740     0.1460 ca         1 50K      -0.155000
     22 C9           0.9720     0.1200    -0.0780 cd         1 50K      -0.121200
     23 C2           3.3900     1.0230    -0.3540 ca         1 50K      -0.048000
     24 C3           4.7190     0.6320    -0.3460 ca         1 50K      -0.231900
     25 N2           5.7170     2.8740    -0.2370 n2         1 50K      -0.850100
     26 H1           6.7910     0.3970    -1.8560 hn         1 50K       0.410800
     27 H2           7.5540     1.8710    -1.5350 hn         1 50K       0.410800
     28 H3           1.5920    -2.9730     0.4870 hn         1 50K       0.299700
     29 H4           6.1010    -1.0060    -0.0730 ha         1 50K       0.140000
     30 H5          -2.7880    -4.3000     0.9420 ha         1 50K       0.139000
     31 H6          -4.7630     2.9710     1.8910 hc         1 50K       0.043200
     32 H7          -5.9370     2.0000     1.0320 hc         1 50K       0.043200
     33 H8          -2.6800     1.2160    -1.2140 hc         1 50K       0.054700
     34 H9          -3.7900     0.2110    -2.1200 hc         1 50K       0.054700
     35 H10         -5.5010    -0.8290    -0.8690 ho         1 50K       0.403000
     36 H11         -4.3320     2.6250    -2.3690 hc         1 50K       0.043200
     37 H12         -5.6600     1.7730    -1.6150 hc         1 50K       0.043200
     38 H13         -5.2440     3.8780    -0.3970 hc         1 50K       0.039200
     39 H14         -3.5530     3.4630    -0.1900 hc         1 50K       0.039200
     40 H15         -4.2800     0.5360     2.1340 hc         1 50K       0.054700
     41 H16         -2.9580     1.3910     1.3590 hc         1 50K       0.054700
     42 H17         -4.5190    -2.5550     0.6200 ha         1 50K       0.156000
     43 H18         -0.4060    -3.7030     0.7470 ha         1 50K       0.133000
     44 H19          4.3750    -2.7000     0.3490 ha         1 50K       0.135000
     45 H20          0.3390     0.9800    -0.2240 ha         1 50K       0.172000
     46 H21          3.1170     2.0500    -0.5660 ha         1 50K       0.140000
     47 H22          4.8820     3.0400     0.3120 hn         1 50K       0.386400
@<TRIPOS>BOND
     1     1     4 1   
     2     1    26 1   
     3     1    27 1   
     4     2     6 1   
     5     2     7 1   
     6     2    28 1   
     7     3    21 ar  
     8     3    24 ar  
     9     3    29 1   
    10     4    24 1   
    11     4    25 2   
    12     5     6 ar  
    13     5    22 1   
    14     5    23 ar  
    15     6    21 ar  
    16     7     8 1   
    17     7    22 2   
    18     8    18 ar  
    19     8    20 ar  
    20     9    19 ar  
    21     9    20 ar  
    22     9    30 1   
    23    10    12 1   
    24    10    13 1   
    25    10    16 1   
    26    10    17 1   
    27    11    15 1   
    28    11    16 1   
    29    11    31 1   
    30    11    32 1   
    31    12    14 1   
    32    12    33 1   
    33    12    34 1   
    34    13    35 1   
    35    14    15 1   
    36    14    36 1   
    37    14    37 1   
    38    15    38 1   
    39    15    39 1   
    40    16    40 1   
    41    16    41 1   
    42    17    18 ar  
    43    17    19 ar  
    44    19    42 1   
    45    20    43 1   
    46    21    44 1   
    47    22    45 1   
    48    23    24 ar  
    49    23    46 1   
    50    25    47 1   
@<TRIPOS>SUBSTRUCTURE
     1 50K         1 TEMP              0 ****  ****    0 ROOT
