@<TRIPOS>MOLECULE
50M
   45    48     1     0     0
SMALL
bcc


@<TRIPOS>ATOM
      1 C2          -1.2020     0.8000    -0.6830 c6         1 50M       0.234500
      2 C3          -2.2760     1.4340     0.2320 c6         1 50M       0.132100
      3 C5          -3.6640     0.8610     0.0270 c3         1 50M      -0.096100
      4 C7          -1.1550     3.5130     0.2030 c6         1 50M       0.128100
      5 C13          2.3200     1.5730     0.4300 ca         1 50M      -0.223000
      6 C15          3.6140    -0.4430     0.4720 ca         1 50M      -0.245200
      7 C16          2.5580    -1.1410    -0.1120 ca         1 50M       0.004000
      8 C17          1.3970    -0.4850    -0.4380 ca         1 50M      -0.189300
      9 C18          0.2850    -1.1710    -1.1510 c6         1 50M      -0.006100
     10 C19         -1.0860    -0.7350    -0.5550 c6         1 50M      -0.223300
     11 C20         -2.1310    -1.4600    -1.3670 c2         1 50M       0.713600
     12 C23         -2.5890    -3.0500     0.2350 c          1 50M       0.875900
     13 C26         -1.0990    -1.2080     0.8870 c          1 50M       0.723500
     14 O6          -2.3610     2.8150    -0.0460 os         1 50M      -0.404600
     15 C9          -1.3850     4.9780    -0.0930 c3         1 50M      -0.089100
     16 C10         -0.0560     2.9260    -0.6650 c6         1 50M       0.188800
     17 N11          0.0630     1.4940    -0.4560 nh         1 50M      -0.686000
     18 C12          1.2370     0.8880    -0.1520 ca         1 50M       0.283600
     19 C14          3.4900     0.9180     0.7350 ca         1 50M      -0.003000
     20 O21         -2.3090    -0.9640    -2.5630 oh         1 50M      -0.555600
     21 N22         -2.7580    -2.5180    -1.0220 ne         1 50M      -0.758100
     22 O24         -3.1300    -4.0760     0.5700 o          1 50M      -0.549500
     23 N25         -1.7880    -2.3580     1.1310 ns         1 50M      -0.632500
     24 O27         -0.4850    -0.6380     1.7580 o          1 50M      -0.568500
     25 N28          4.8270    -1.1280     0.7980 no         1 50M       0.325200
     26 O29          4.8960    -2.3210     0.5770 o          1 50M      -0.222500
     27 O30          5.7410    -0.4920     1.2830 o          1 50M      -0.222500
     28 H2          -1.5030     1.0150    -1.7140 h1         1 50M       0.081700
     29 H3          -1.9710     1.2980     1.2770 h1         1 50M       0.063700
     30 H51         -3.7420    -0.1700     0.3700 hc         1 50M       0.051367
     31 H52         -4.3830     1.4320     0.6140 hc         1 50M       0.051367
     32 H53         -3.9730     0.9040    -1.0190 hc         1 50M       0.051367
     33 H7          -0.8700     3.3900     1.2590 h1         1 50M       0.051700
     34 H13          2.2440     2.6200     0.6850 ha         1 50M       0.144000
     35 H16          2.6500    -2.1930    -0.3410 ha         1 50M       0.164000
     36 H182         0.2920    -0.8950    -2.2090 hc         1 50M       0.072700
     37 H183         0.3950    -2.2560    -1.1010 hc         1 50M       0.072700
     38 H91         -2.1890     5.3780     0.5260 hc         1 50M       0.050033
     39 H92         -0.4840     5.5510     0.1220 hc         1 50M       0.050033
     40 H93         -1.6470     5.1350    -1.1400 hc         1 50M       0.050033
     41 H102        -0.2950     3.1060    -1.7210 h1         1 50M       0.063200
     42 H103         0.8870     3.4230    -0.4630 h1         1 50M       0.063200
     43 H14          4.2950     1.4710     1.1970 ha         1 50M       0.166000
     44 H21         -2.9480    -1.5030    -3.0570 ho         1 50M       0.472000
     45 H25         -1.7390    -2.7290     2.0720 hn         1 50M       0.348500
@<TRIPOS>BOND
     1     1     2 1   
     2     1    10 1   
     3     1    17 1   
     4     1    28 1   
     5     2     3 1   
     6     2    14 1   
     7     2    29 1   
     8     3    30 1   
     9     3    31 1   
    10     3    32 1   
    11     4    14 1   
    12     4    15 1   
    13     4    16 1   
    14     4    33 1   
    15     5    18 ar  
    16     5    19 ar  
    17     5    34 1   
    18     6     7 ar  
    19     6    19 ar  
    20     6    25 1   
    21     7     8 ar  
    22     7    35 1   
    23     8     9 1   
    24     8    18 ar  
    25     9    10 1   
    26     9    36 1   
    27     9    37 1   
    28    10    11 1   
    29    10    13 1   
    30    11    20 1   
    31    11    21 2   
    32    12    21 1   
    33    12    22 2   
    34    12    23 1   
    35    13    23 1   
    36    13    24 2   
    37    15    38 1   
    38    15    39 1   
    39    15    40 1   
    40    16    17 1   
    41    16    41 1   
    42    16    42 1   
    43    17    18 1   
    44    19    43 1   
    45    20    44 1   
    46    23    45 1   
    47    25    26 1   
    48    25    27 1   
@<TRIPOS>SUBSTRUCTURE
     1 50M         1 TEMP              0 ****  ****    0 ROOT
