@<TRIPOS>MOLECULE
50M
   45    48     1     0     0
SMALL
No Charge or Current Charge


@<TRIPOS>ATOM
      1 C2          -1.1930     0.7830    -0.6600 c6         1 50M       0.234500
      2 C3          -2.3850     1.4260     0.1630 c6         1 50M       0.155300
      3 C5          -3.7980     0.8860    -0.1780 c3         1 50M      -0.096100
      4 C7          -1.2460     3.5520     0.2630 c6         1 50M       0.151300
      5 C13          2.4190     1.5250     0.4990 ca         1 50M      -0.205000
      6 C15          3.8460    -0.4430     0.3230 ca         1 50M      -0.245200
      7 C16          2.7690    -1.1460    -0.2550 ca         1 50M       0.022000
      8 C17          1.5260    -0.5150    -0.4560 ca         1 50M      -0.189300
      9 C18          0.3810    -1.3300    -1.0450 c6         1 50M      -0.006100
     10 C19         -1.0020    -0.7880    -0.5150 c6         1 50M      -0.223300
     11 C20         -2.0690    -1.4940    -1.3270 c2         1 50M       0.713600
     12 C23         -2.8740    -2.9260     0.3180 c          1 50M       0.733400
     13 C26         -1.2060    -1.2370     0.9330 c          1 50M       0.581000
     14 O6          -2.4540     2.8480    -0.0980 os         1 50M      -0.451000
     15 C9          -1.4930     5.0530    -0.0140 c3         1 50M      -0.089100
     16 C10         -0.0290     2.9860    -0.5330 c6         1 50M       0.188800
     17 N11          0.0890     1.5030    -0.3280 nh         1 50M      -0.824400
     18 C12          1.3410     0.8440    -0.1050 ca         1 50M       0.422000
     19 C14          3.6560     0.8990     0.7090 ca         1 50M       0.015000
     20 O21         -2.1500    -1.1640    -2.6000 oh         1 50M      -0.594600
     21 N22         -2.8510    -2.4420    -0.9750 ne         1 50M      -0.758100
     22 O24         -3.5630    -3.8540     0.6900 o          1 50M      -0.474000
     23 N25         -2.0740    -2.2500     1.1690 ns         1 50M      -0.498500
     24 O27         -0.6430    -0.7060     1.8740 o          1 50M      -0.493000
     25 N28          5.1640    -1.1170     0.5400 no         1 50M       0.705200
     26 O29          5.2810    -2.2990     0.1930 o          1 50M      -0.412500
     27 O30          6.0780    -0.4600     1.0540 o          1 50M      -0.412500
     28 H2          -1.3990     0.9970    -1.7200 h1         1 50M       0.081700
     29 H3          -2.2150     1.2880     1.2410 h1         1 50M       0.063700
     30 H51         -3.9510    -0.1250     0.2140 hc         1 50M       0.051367
     31 H52         -4.5750     1.5160     0.2710 hc         1 50M       0.051367
     32 H53         -3.9710     0.8670    -1.2610 hc         1 50M       0.051367
     33 H7          -1.0690     3.4130     1.3390 h1         1 50M       0.051700
     34 H13          2.3100     2.5480     0.8370 ha         1 50M       0.126000
     35 H16          2.8870    -2.1890    -0.5450 ha         1 50M       0.146000
     36 H182         0.4380    -1.2490    -2.1400 hc         1 50M       0.072700
     37 H183         0.4930    -2.3980    -0.8060 hc         1 50M       0.072700
     38 H91         -2.3530     5.4220     0.5580 hc         1 50M       0.050033
     39 H92         -0.6220     5.6540     0.2730 hc         1 50M       0.050033
     40 H93         -1.6910     5.2350    -1.0770 hc         1 50M       0.050033
     41 H102        -0.1730     3.2010    -1.6020 h1         1 50M       0.063200
     42 H103         0.8700     3.5360    -0.2310 h1         1 50M       0.063200
     43 H14          4.4610     1.4650     1.1760 ha         1 50M       0.148000
     44 H21         -2.8490    -1.7760    -2.9040 ho         1 50M       0.511000
     45 H25         -2.1360    -2.5490     2.1290 hn         1 50M       0.348500
@<TRIPOS>BOND
     1     1     2 1   
     2     1    10 1   
     3     1    17 1   
     4     1    28 1   
     5     2     3 1   
     6     2    14 1   
     7     2    29 1   
     8     3    30 1   
     9     3    31 1   
    10     3    32 1   
    11     4    14 1   
    12     4    15 1   
    13     4    16 1   
    14     4    33 1   
    15     5    18 ar  
    16     5    19 ar  
    17     5    34 1   
    18     6     7 ar  
    19     6    19 ar  
    20     6    25 1   
    21     7     8 ar  
    22     7    35 1   
    23     8     9 1   
    24     8    18 ar  
    25     9    10 1   
    26     9    36 1   
    27     9    37 1   
    28    10    11 1   
    29    10    13 1   
    30    11    20 1   
    31    11    21 2   
    32    12    21 1   
    33    12    22 2   
    34    12    23 1   
    35    13    23 1   
    36    13    24 2   
    37    15    38 1   
    38    15    39 1   
    39    15    40 1   
    40    16    17 1   
    41    16    41 1   
    42    16    42 1   
    43    17    18 1   
    44    19    43 1   
    45    20    44 1   
    46    23    45 1   
    47    25    26 1   
    48    25    27 1   
@<TRIPOS>SUBSTRUCTURE
     1 50M         1 TEMP              0 ****  ****    0 ROOT
