@<TRIPOS>MOLECULE
50O
   55    59     1     0     0
SMALL
bcc


@<TRIPOS>ATOM
      1 C13         -7.7230   -56.6210     0.8840 c          1 50O       0.710300
      2 C18        -12.2030   -59.4270    -4.5230 c3         1 50O       0.214100
      3 C17        -10.1510   -61.9530     2.0270 c3         1 50O       0.035600
      4 C16        -10.4850   -55.6640    -2.0390 c3         1 50O       0.145100
      5 C21        -10.1590   -54.2660    -2.5340 c3         1 50O       0.139400
      6 C24         -9.0200   -56.4900     2.9450 cx         1 50O       0.049700
      7 C12        -11.5050   -62.6580     0.0270 cc         1 50O       0.381700
      8 C27         -9.1840   -57.4020     4.1180 cx         1 50O      -0.134900
      9 C1          -9.9700   -58.6650    -1.1170 ca         1 50O       0.500800
     10 C2          -9.8490   -59.4860     0.0140 ca         1 50O      -0.266100
     11 N3          -9.2510   -57.5310    -0.9030 na         1 50O      -0.119100
     12 N4         -10.6840   -58.8960    -2.2340 nb         1 50O      -0.834000
     13 C5          -8.7030   -57.5970     0.3690 cc         1 50O      -0.172300
     14 C6         -11.2610   -60.9950    -1.2540 ca         1 50O      -0.138900
     15 C7         -10.5430   -60.7050    -0.1050 ca         1 50O       0.024800
     16 N8         -11.8570   -62.2250    -1.1490 nd         1 50O      -0.552100
     17 C9          -9.0530   -58.7910     0.9500 cd         1 50O      -0.099200
     18 C10        -11.3220   -60.0540    -2.3250 ca         1 50O       0.790200
     19 N11        -10.7100   -61.7810     0.7060 na         1 50O      -0.128300
     20 N15        -12.0240   -60.3460    -3.4290 nu         1 50O      -0.861900
     21 N19         -7.7770   -56.3590     2.2190 n          1 50O      -0.420800
     22 O20         -6.8770   -56.1260     0.1500 o          1 50O      -0.591100
     23 O22        -11.3560   -53.5500    -2.7150 oh         1 50O      -0.577800
     24 O23        -11.3420   -56.2770    -2.9690 oh         1 50O      -0.609800
     25 C25         -6.7110   -55.5930     2.7910 cx         1 50O       0.049700
     26 C26         -9.2050   -55.9110     4.3090 cx         1 50O      -0.134900
     27 C28         -5.3060   -56.0750     2.6600 cx         1 50O      -0.134900
     28 C29         -5.9790   -56.1200     3.9930 cx         1 50O      -0.134900
     29 H1         -12.7320   -59.9410    -5.3210 h1         1 50O       0.045700
     30 H2         -12.7880   -58.5490    -4.2380 h1         1 50O       0.045700
     31 H3         -11.2440   -59.0830    -4.9120 h1         1 50O       0.045700
     32 H4         -10.4530   -62.9200     2.4190 h1         1 50O       0.054367
     33 H5          -9.0640   -61.9160     1.9890 h1         1 50O       0.054367
     34 H6         -10.5130   -61.1760     2.6990 h1         1 50O       0.054367
     35 H7         -10.9680   -55.5750    -1.0510 h1         1 50O       0.044700
     36 H8          -9.5850   -54.3430    -3.4690 h1         1 50O       0.020200
     37 H9          -9.5060   -53.7830    -1.7960 h1         1 50O       0.020200
     38 H10         -9.8840   -56.4070     2.2990 h1         1 50O       0.088200
     39 H11        -11.7900   -63.6050     0.4610 h5         1 50O       0.063800
     40 H12        -10.1100   -57.9580     4.1990 hc         1 50O       0.077700
     41 H13         -8.3110   -57.9340     4.4730 hc         1 50O       0.077700
     42 H14         -8.7410   -59.1280     1.9260 ha         1 50O       0.154000
     43 H15         -8.8280   -56.8140    -2.8100 h1         1 50O       0.082200
     44 H16         -8.3990   -55.7540    -1.4880 h1         1 50O       0.082200
     45 H17        -12.5650   -61.1940    -3.4210 hn         1 50O       0.461800
     46 H18        -11.1330   -52.6860    -3.0720 ho         1 50O       0.399000
     47 H19        -11.2420   -57.2430    -2.8720 ho         1 50O       0.444000
     48 H20         -6.8610   -54.5170     2.7630 h1         1 50O       0.088200
     49 H21         -8.3650   -55.4590     4.8170 hc         1 50O       0.077700
     50 H22        -10.1530   -55.4270     4.5090 hc         1 50O       0.077700
     51 H23         -5.1340   -57.0170     2.1580 hc         1 50O       0.077700
     52 H24         -4.5410   -55.3300     2.4840 hc         1 50O       0.077700
     53 H25         -6.2540   -57.0930     4.3770 hc         1 50O       0.077700
     54 H26         -5.6970   -55.4030     4.7530 hc         1 50O       0.077700
     55 C14         -9.1710   -56.4290    -1.8460 c3         1 50O      -0.005700
@<TRIPOS>BOND
     1     1    13 1   
     2     1    21 1   
     3     1    22 2   
     4     2    20 1   
     5     2    29 1   
     6     2    30 1   
     7     2    31 1   
     8     3    19 1   
     9     3    32 1   
    10     3    33 1   
    11     3    34 1   
    12     4     5 1   
    13     4    24 1   
    14     4    35 1   
    15     4    55 1   
    16     5    23 1   
    17     5    36 1   
    18     5    37 1   
    19     6     8 1   
    20     6    21 1   
    21     6    26 1   
    22     6    38 1   
    23     7    16 2   
    24     7    19 1   
    25     7    39 1   
    26     8    26 1   
    27     8    40 1   
    28     8    41 1   
    29     9    10 ar  
    30     9    11 1   
    31     9    12 ar  
    32    10    15 ar  
    33    10    17 1   
    34    11    13 1   
    35    11    55 1   
    36    12    18 ar  
    37    13    17 2   
    38    14    15 ar  
    39    14    16 1   
    40    14    18 ar  
    41    15    19 1   
    42    17    42 1   
    43    18    20 1   
    44    20    45 1   
    45    21    25 1   
    46    23    46 1   
    47    24    47 1   
    48    25    27 1   
    49    25    28 1   
    50    25    48 1   
    51    26    49 1   
    52    26    50 1   
    53    27    28 1   
    54    27    51 1   
    55    27    52 1   
    56    28    53 1   
    57    28    54 1   
    58    43    55 1   
    59    44    55 1   
@<TRIPOS>SUBSTRUCTURE
     1 50O         1 TEMP              0 ****  ****    0 ROOT
