@<TRIPOS>MOLECULE
50O
   55    59     1     0     0
SMALL
No Charge or Current Charge


@<TRIPOS>ATOM
      1 C13         -7.9670   -56.3410     1.0480 c          1 50O       0.643300
      2 C18        -12.2830   -59.6010    -4.6760 c3         1 50O       0.214100
      3 C17        -10.2320   -61.4600     2.1960 c3         1 50O       0.064900
      4 C16        -10.3980   -55.5160    -2.3410 c3         1 50O       0.168300
      5 C21        -10.0540   -54.2460    -3.1760 c3         1 50O       0.162600
      6 C24         -8.9600   -56.8750     3.3190 cx         1 50O       0.049700
      7 C12        -11.5920   -62.5260     0.2750 cc         1 50O       0.381700
      8 C27         -8.8440   -58.0200     4.3020 cx         1 50O      -0.134900
      9 C1         -10.0580   -58.5350    -1.2560 ca         1 50O       0.435500
     10 C2         -10.0100   -59.3110    -0.1200 ca         1 50O      -0.200800
     11 N3          -9.3240   -57.3810    -0.9890 na         1 50O      -0.148400
     12 N4         -10.7420   -58.8930    -2.3710 nb         1 50O      -0.834000
     13 C5          -8.8260   -57.3570     0.3460 cc         1 50O      -0.172300
     14 C6         -11.3470   -60.9490    -1.2000 ca         1 50O      -0.073600
     15 C7         -10.6620   -60.5450    -0.0940 ca         1 50O       0.024800
     16 N8         -11.9470   -62.2070    -0.9920 nd         1 50O      -0.552100
     17 C9          -9.2350   -58.5890     0.8530 cd         1 50O      -0.149200
     18 C10        -11.3680   -60.0900    -2.3340 ca         1 50O       0.724900
     19 N11        -10.8070   -61.5200     0.8460 na         1 50O      -0.157600
     20 N15        -12.0530   -60.4270    -3.4780 nu         1 50O      -0.917100
     21 N19         -7.8460   -56.4150     2.4660 n          1 50O      -0.353800
     22 O20         -7.3880   -55.4560     0.4280 o          1 50O      -0.591100
     23 O22        -11.1910   -53.3740    -3.3130 oh         1 50O      -0.640000
     24 O23        -11.3780   -56.3230    -3.0280 oh         1 50O      -0.672000
     25 C25         -6.7900   -55.6550     3.1460 cx         1 50O       0.049700
     26 C26         -9.0870   -56.6200     4.8090 cx         1 50O      -0.134900
     27 C28         -5.3350   -55.7040     2.7310 cx         1 50O      -0.134900
     28 C29         -5.7600   -56.2990     4.0480 cx         1 50O      -0.134900
     29 H1         -12.8700   -60.1580    -5.4200 h1         1 50O       0.045700
     30 H2         -12.8350   -58.6880    -4.4150 h1         1 50O       0.045700
     31 H3         -11.3290   -59.3130    -5.1360 h1         1 50O       0.045700
     32 H4         -10.5110   -62.3590     2.7590 h1         1 50O       0.054367
     33 H5          -9.1380   -61.4050     2.1290 h1         1 50O       0.054367
     34 H6         -10.6130   -60.5750     2.7200 h1         1 50O       0.054367
     35 H7         -10.8000   -55.1810    -1.3750 h1         1 50O       0.044700
     36 H8          -9.6890   -54.5530    -4.1660 h1         1 50O       0.020200
     37 H9          -9.2360   -53.7070    -2.6790 h1         1 50O       0.020200
     38 H10         -9.8850   -56.7800     2.7480 h1         1 50O       0.088200
     39 H11        -11.8630   -63.4280     0.8110 h5         1 50O       0.063800
     40 H12         -9.6690   -58.7260     4.3540 hc         1 50O       0.077700
     41 H13         -7.8630   -58.4570     4.4650 hc         1 50O       0.077700
     42 H14         -8.9450   -58.9900     1.8170 ha         1 50O       0.204000
     43 H15         -8.8200   -56.8730    -2.9740 h1         1 50O       0.082200
     44 H16         -8.3160   -55.6970    -1.7720 h1         1 50O       0.082200
     45 H17        -12.5360   -61.3200    -3.3990 hn         1 50O       0.517000
     46 H18        -10.9180   -52.6390    -3.9060 ho         1 50O       0.438000
     47 H19        -11.1700   -57.2760    -2.8070 ho         1 50O       0.483000
     48 H20         -7.1980   -54.6860     3.4390 h1         1 50O       0.088200
     49 H21         -8.2750   -56.1330     5.3430 hc         1 50O       0.077700
     50 H22        -10.0770   -56.3870     5.1920 hc         1 50O       0.077700
     51 H23         -5.0540   -56.3900     1.9360 hc         1 50O       0.077700
     52 H24         -4.7750   -54.7730     2.7500 hc         1 50O       0.077700
     53 H25         -5.7530   -57.3830     4.1300 hc         1 50O       0.077700
     54 H26         -5.4870   -55.7710     4.9580 hc         1 50O       0.077700
     55 C14         -9.1350   -56.3660    -2.0520 c3         1 50O       0.023600
@<TRIPOS>BOND
     1     1    13 1   
     2     1    21 1   
     3     1    22 2   
     4     2    20 1   
     5     2    29 1   
     6     2    30 1   
     7     2    31 1   
     8     3    19 1   
     9     3    32 1   
    10     3    33 1   
    11     3    34 1   
    12     4     5 1   
    13     4    24 1   
    14     4    35 1   
    15     4    55 1   
    16     5    23 1   
    17     5    36 1   
    18     5    37 1   
    19     6     8 1   
    20     6    21 1   
    21     6    26 1   
    22     6    38 1   
    23     7    16 2   
    24     7    19 1   
    25     7    39 1   
    26     8    26 1   
    27     8    40 1   
    28     8    41 1   
    29     9    10 ar  
    30     9    11 1   
    31     9    12 ar  
    32    10    15 ar  
    33    10    17 1   
    34    11    13 1   
    35    11    55 1   
    36    12    18 ar  
    37    13    17 2   
    38    14    15 ar  
    39    14    16 1   
    40    14    18 ar  
    41    15    19 1   
    42    17    42 1   
    43    18    20 1   
    44    20    45 1   
    45    21    25 1   
    46    23    46 1   
    47    24    47 1   
    48    25    27 1   
    49    25    28 1   
    50    25    48 1   
    51    26    49 1   
    52    26    50 1   
    53    27    28 1   
    54    27    51 1   
    55    27    52 1   
    56    28    53 1   
    57    28    54 1   
    58    43    55 1   
    59    44    55 1   
@<TRIPOS>SUBSTRUCTURE
     1 50O         1 TEMP              0 ****  ****    0 ROOT
