@<TRIPOS>MOLECULE
50P
   35    37     1     0     0
SMALL
bcc


@<TRIPOS>ATOM
      1 C4          -0.3760    -1.2190     0.0400 cc         1 50P      -0.250400
      2 C5          -0.5360     0.1360    -0.0180 cd         1 50P       0.229800
      3 C8           1.7900     0.5090    -0.0470 cc         1 50P       0.200300
      4 C9           3.0480     1.0940    -0.0780 cd         1 50P      -0.276300
      5 C10          3.9300    -0.0150    -0.0610 cd         1 50P       0.382200
      6 C13          0.9590    -1.7890     0.0180 c          1 50P       0.633500
      7 C3          -1.7250    -3.0570    -1.0630 c3         1 50P      -0.088100
      8 C1          -1.5250    -2.9690     1.4580 c3         1 50P      -0.088100
      9 C2          -1.5570    -2.1570     0.1610 c3         1 50P       0.008500
     10 N6           0.5370     0.9830    -0.0510 na         1 50P      -0.590400
     11 N11          3.2950    -1.1530    -0.0250 nc         1 50P      -0.471800
     12 N12          1.9860    -0.8260    -0.0170 n          1 50P       0.073300
     13 O14          1.2510    -2.9640     0.0330 o          1 50P      -0.532500
     14 C15          3.3520     2.4640    -0.1190 ch         1 50P       0.276800
     15 N16          3.6010     3.5900    -0.1530 n1         1 50P      -0.382800
     16 C17         -1.8400     0.8330    -0.0360 ca         1 50P      -0.100800
     17 C18         -2.1780     1.6920     1.0060 ca         1 50P      -0.099500
     18 C19         -3.3900     2.3680     0.9830 ca         1 50P      -0.127500
     19 C20         -4.2620     2.1960    -0.0840 ca         1 50P      -0.104000
     20 C21         -3.9220     1.3460    -1.1290 ca         1 50P      -0.127500
     21 C22         -2.7150     0.6650    -1.1070 ca         1 50P      -0.099500
     22 H1           5.0080     0.0200    -0.0750 h4         1 50P       0.052100
     23 H2          -0.9170    -3.7820    -1.1530 hc         1 50P       0.041200
     24 H3          -2.6610    -3.6130    -0.9860 hc         1 50P       0.041200
     25 H4          -1.7620    -2.4760    -1.9860 hc         1 50P       0.041200
     26 H5          -1.4300    -2.3190     2.3290 hc         1 50P       0.041200
     27 H6          -2.4580    -3.5250     1.5610 hc         1 50P       0.041200
     28 H8          -0.7080    -3.6870     1.4750 hc         1 50P       0.041200
     29 H9          -2.4490    -1.5310     0.2180 hc         1 50P       0.048700
     30 H7           0.3840     1.9780    -0.1370 hn         1 50P       0.481800
     31 H10         -1.5020     1.8210     1.8430 ha         1 50P       0.143000
     32 H11         -3.6520     3.0270     1.8000 ha         1 50P       0.141000
     33 H12         -5.2050     2.7260    -0.1020 ha         1 50P       0.139000
     34 H13         -4.5980     1.2150    -1.9640 ha         1 50P       0.141000
     35 H14         -2.4490     0.0070    -1.9250 ha         1 50P       0.143000
@<TRIPOS>BOND
     1     1     2 2   
     2     1     6 1   
     3     1     9 1   
     4     2    10 1   
     5     2    16 1   
     6     3     4 2   
     7     3    10 1   
     8     3    12 1   
     9     4     5 1   
    10     4    14 1   
    11     5    11 2   
    12     5    22 1   
    13     6    12 1   
    14     6    13 2   
    15     7     9 1   
    16     7    23 1   
    17     7    24 1   
    18     7    25 1   
    19     8     9 1   
    20     8    26 1   
    21     8    27 1   
    22     8    28 1   
    23     9    29 1   
    24    10    30 1   
    25    11    12 1   
    26    14    15 3   
    27    16    17 ar  
    28    16    21 ar  
    29    17    18 ar  
    30    17    31 1   
    31    18    19 ar  
    32    18    32 1   
    33    19    20 ar  
    34    19    33 1   
    35    20    21 ar  
    36    20    34 1   
    37    21    35 1   
@<TRIPOS>SUBSTRUCTURE
     1 50P         1 TEMP              0 ****  ****    0 ROOT
