@<TRIPOS>MOLECULE
50P
   35    37     1     0     0
SMALL
No Charge or Current Charge


@<TRIPOS>ATOM
      1 C4          -0.3730    -1.2580     0.0020 cc         1 50P      -0.250400
      2 C5          -0.5670     0.1410     0.1060 cd         1 50P       0.229800
      3 C8           1.8320     0.3280     0.0650 cc         1 50P       0.288000
      4 C9           2.9550     1.0950     0.0870 cd         1 50P      -0.211000
      5 C10          3.9670     0.0930    -0.0460 cd         1 50P       0.316900
      6 C13          0.9970    -1.8960    -0.1160 c          1 50P       0.558000
      7 C3          -1.7700    -3.0800    -1.1810 c3         1 50P      -0.088100
      8 C1          -1.4140    -3.1880     1.3630 c3         1 50P      -0.088100
      9 C2          -1.5190    -2.2740     0.1170 c3         1 50P       0.008500
     10 N6           0.5980     0.9180     0.1430 na         1 50P      -0.784000
     11 N11          3.4350    -1.1260    -0.1400 nc         1 50P      -0.471800
     12 N12          2.0540    -0.9880    -0.0730 n          1 50P       0.124000
     13 O14          1.2080    -3.0990    -0.2390 o          1 50P      -0.457000
     14 C15          3.1050     2.4960     0.2070 ch         1 50P       0.366000
     15 N16          3.1980     3.6560     0.3060 n1         1 50P      -0.472000
     16 C17         -1.8540     0.8800     0.0260 ca         1 50P      -0.100800
     17 C18         -2.0070     2.0910     0.7430 ca         1 50P      -0.081500
     18 C19         -3.2010     2.8300     0.6680 ca         1 50P      -0.109500
     19 C20         -4.2570     2.3850    -0.1400 ca         1 50P      -0.086000
     20 C21         -4.1110     1.2030    -0.8820 ca         1 50P      -0.109500
     21 C22         -2.9190     0.4620    -0.8060 ca         1 50P      -0.081500
     22 H1           5.0430     0.2170    -0.0790 h4         1 50P       0.052100
     23 H2          -0.9860    -3.8250    -1.3560 hc         1 50P       0.041200
     24 H3          -2.7260    -3.6140    -1.1210 hc         1 50P       0.041200
     25 H4          -1.8070    -2.4180    -2.0540 hc         1 50P       0.041200
     26 H5          -1.2170    -2.5910     2.2610 hc         1 50P       0.041200
     27 H6          -2.3560    -3.7270     1.5190 hc         1 50P       0.041200
     28 H8          -0.6210    -3.9380     1.2660 hc         1 50P       0.041200
     29 H9          -2.4460    -1.7290     0.3130 hc         1 50P       0.048700
     30 H7           0.5200     1.9310     0.1830 hn         1 50P       0.537000
     31 H10         -1.2130     2.4520     1.3920 ha         1 50P       0.125000
     32 H11         -3.3070     3.7500     1.2400 ha         1 50P       0.123000
     33 H12         -5.1800     2.9580    -0.2010 ha         1 50P       0.121000
     34 H13         -4.9190     0.8660    -1.5290 ha         1 50P       0.123000
     35 H14         -2.8180    -0.4150    -1.4360 ha         1 50P       0.125000
@<TRIPOS>BOND
     1     1     2 2   
     2     1     6 1   
     3     1     9 1   
     4     2    10 1   
     5     2    16 1   
     6     3     4 2   
     7     3    10 1   
     8     3    12 1   
     9     4     5 1   
    10     4    14 1   
    11     5    11 2   
    12     5    22 1   
    13     6    12 1   
    14     6    13 2   
    15     7     9 1   
    16     7    23 1   
    17     7    24 1   
    18     7    25 1   
    19     8     9 1   
    20     8    26 1   
    21     8    27 1   
    22     8    28 1   
    23     9    29 1   
    24    10    30 1   
    25    11    12 1   
    26    14    15 3   
    27    16    17 ar  
    28    16    21 ar  
    29    17    18 ar  
    30    17    31 1   
    31    18    19 ar  
    32    18    32 1   
    33    19    20 ar  
    34    19    33 1   
    35    20    21 ar  
    36    20    34 1   
    37    21    35 1   
@<TRIPOS>SUBSTRUCTURE
     1 50P         1 TEMP              0 ****  ****    0 ROOT
