@<TRIPOS>MOLECULE
50Q
   25    26     1     0     0
SMALL
abcg2


@<TRIPOS>ATOM
      1 C10          2.8150    -1.7560     0.0180 ca         1 50Q      -0.064000
      2 C13          1.9950     0.4920     0.0080 ca         1 50Q       0.154000
      3 C15          0.6870     0.0260    -0.0050 ca         1 50Q      -0.174000
      4 C04         -3.5660     0.1270    -1.2140 ca         1 50Q       0.192100
      5 C03         -4.1300     0.5350    -0.0090 ca         1 50Q      -0.309000
      6 C02         -3.5540     0.1340     1.1930 ca         1 50Q       0.192100
      7 O01         -4.0590     0.5000     2.3830 oh         1 50Q      -0.525100
      8 C19         -2.4170    -0.6710     1.2010 ca         1 50Q      -0.192500
      9 C09          1.5210    -2.2350     0.0050 ca         1 50Q      -0.133000
     10 C11          3.0650    -0.3910     0.0190 ca         1 50Q       0.083000
     11 C16          0.4520    -1.3420    -0.0060 ca         1 50Q       0.154100
     12 CL6          4.6900     0.1830     0.0340 cl         1 50Q      -0.173000
     13 O17         -0.7870    -1.8880    -0.0200 os         1 50Q      -0.249200
     14 CL5          2.2640     2.1930     0.0090 cl         1 50Q      -0.172000
     15 C18         -1.8860    -1.0600    -0.0160 ca         1 50Q       0.162100
     16 C06         -2.4280    -0.6770    -1.2290 ca         1 50Q      -0.192500
     17 H10          3.6430    -2.4510     0.0280 ha         1 50Q       0.134000
     18 H09          1.3380    -3.3020     0.0050 ha         1 50Q       0.138000
     19 H15         -0.1250     0.7390    -0.0130 ha         1 50Q       0.145000
     20 H01         -4.8390     1.0540     2.2660 ho         1 50Q       0.469000
     21 H03         -5.0150     1.1640    -0.0060 ha         1 50Q       0.118000
     22 H19         -1.9680    -0.9870     2.1340 ha         1 50Q       0.149000
     23 H05         -4.8600     1.0410    -2.2810 ho         1 50Q       0.469000
     24 H06         -1.9880    -0.9980    -2.1650 ha         1 50Q       0.149000
     25 O05         -4.0820     0.4860    -2.4020 oh         1 50Q      -0.525100
@<TRIPOS>BOND
     1     1     9 ar  
     2     1    10 ar  
     3     1    17 1   
     4     2     3 ar  
     5     2    10 ar  
     6     2    14 1   
     7     3    11 ar  
     8     3    19 1   
     9     4     5 ar  
    10     4    16 ar  
    11     4    25 1   
    12     5     6 ar  
    13     5    21 1   
    14     6     7 1   
    15     6     8 ar  
    16     7    20 1   
    17     8    15 ar  
    18     8    22 1   
    19     9    11 ar  
    20     9    18 1   
    21    10    12 1   
    22    11    13 1   
    23    13    15 1   
    24    15    16 ar  
    25    16    24 1   
    26    23    25 1   
@<TRIPOS>SUBSTRUCTURE
     1 50Q         1 TEMP              0 ****  ****    0 ROOT
