@<TRIPOS>MOLECULE
50Q
   25    26     1     0     0
SMALL
No Charge or Current Charge


@<TRIPOS>ATOM
      1 C10          2.7660    -1.8490     0.4200 ca         1 50Q      -0.064000
      2 C13          2.1830     0.5100     0.2340 ca         1 50Q       0.154000
      3 C15          0.9100     0.1580    -0.2460 ca         1 50Q      -0.174000
      4 C04         -4.0150    -0.0760    -1.2090 ca         1 50Q       0.192100
      5 C03         -4.2300     0.4260     0.0810 ca         1 50Q      -0.309000
      6 C02         -3.2470     0.2550     1.0640 ca         1 50Q       0.192100
      7 O01         -3.4530     0.7340     2.3190 oh         1 50Q      -0.525100
      8 C19         -2.0520    -0.4090     0.7620 ca         1 50Q      -0.192500
      9 C09          1.4910    -2.1990    -0.0600 ca         1 50Q      -0.133000
     10 C11          3.1140    -0.4950     0.5710 ca         1 50Q       0.083000
     11 C16          0.5600    -1.1990    -0.3820 ca         1 50Q       0.154100
     12 Cl6          4.7210    -0.0850     1.1750 cl         1 50Q      -0.173000
     13 O17         -0.6760    -1.5690    -0.8620 os         1 50Q      -0.249200
     14 Cl5          2.5880     2.2190     0.4000 cl         1 50Q      -0.172000
     15 C18         -1.8340    -0.9010    -0.5380 ca         1 50Q       0.162100
     16 C06         -2.8230    -0.7420    -1.5190 ca         1 50Q      -0.192500
     17 H10          3.4850    -2.6250     0.6740 ha         1 50Q       0.134000
     18 H09          1.2220    -3.2460    -0.1780 ha         1 50Q       0.138000
     19 H15          0.2030     0.9380    -0.5140 ha         1 50Q       0.145000
     20 H01         -4.3360     1.1600     2.3390 ho         1 50Q       0.469000
     21 H03         -5.1570     0.9430     0.3190 ha         1 50Q       0.118000
     22 H19         -1.3020    -0.5450     1.5360 ha         1 50Q       0.149000
     23 H05         -5.7220     0.5640    -1.7650 ho         1 50Q       0.469000
     24 H06         -2.6610    -1.1320    -2.5190 ha         1 50Q       0.149000
     25 O05         -4.9690     0.0810    -2.1650 oh         1 50Q      -0.525100
@<TRIPOS>BOND
     1     1     9 ar  
     2     1    10 ar  
     3     1    17 1   
     4     2     3 ar  
     5     2    10 ar  
     6     2    14 1   
     7     3    11 ar  
     8     3    19 1   
     9     4     5 ar  
    10     4    16 ar  
    11     4    25 1   
    12     5     6 ar  
    13     5    21 1   
    14     6     7 1   
    15     6     8 ar  
    16     7    20 1   
    17     8    15 ar  
    18     8    22 1   
    19     9    11 ar  
    20     9    18 1   
    21    10    12 1   
    22    11    13 1   
    23    13    15 1   
    24    15    16 ar  
    25    16    24 1   
    26    23    25 1   
@<TRIPOS>SUBSTRUCTURE
     1 50Q         1 TEMP              0 ****  ****    0 ROOT
