@<TRIPOS>MOLECULE
50R
   32    34     1     0     0
SMALL
No Charge or Current Charge


@<TRIPOS>ATOM
      1 C5          -4.9450    -0.3770     0.0330 cc         1 50R      -0.142600
      2 C6          -3.6000    -0.5560     0.3080 cd         1 50R      -0.084200
      3 C11         -3.0010     2.9840    -0.3710 ca         1 50R       0.342900
      4 C7          -2.8070     0.6430     0.1800 ca         1 50R      -0.086800
      5 C8          -1.4290     0.8140     0.3780 ca         1 50R       0.135100
      6 C9          -0.9080     2.1220     0.1930 ca         1 50R       0.250900
      7 C12         -3.5850     1.7180    -0.1940 ca         1 50R      -0.191000
      8 N2          -7.2300    -1.0610    -0.2140 ns         1 50R      -0.502900
      9 C3          -5.9500    -1.4610     0.0990 c          1 50R       0.634300
     10 C1          -8.3940    -1.9490    -0.2190 c3         1 50R       0.093300
     11 O4          -5.6870    -2.6170     0.4020 o          1 50R      -0.587100
     12 N10         -1.6710     3.1900    -0.1780 nb         1 50R      -0.628000
     13 S13         -5.3120     1.3190    -0.4090 ss         1 50R       0.090400
     14 O14         -0.6450    -0.2530     0.7680 os         1 50R      -0.238200
     15 C15          0.6790    -0.3680     0.4150 ca         1 50R       0.100100
     16 C16          1.6080    -0.7900     1.3810 ca         1 50R      -0.116000
     17 C17          2.9660    -0.9280     1.0380 ca         1 50R      -0.070500
     18 C18          3.3900    -0.6510    -0.2730 ca         1 50R       0.194000
     19 C19          2.4610    -0.2420    -1.2440 ca         1 50R      -0.070500
     20 C20          1.1030    -0.1040    -0.9030 ca         1 50R      -0.116000
     21 I21          5.4800    -0.8650    -0.8000 i          1 50R      -0.299000
     22 H1          -3.1800    -1.5180     0.5950 ha         1 50R       0.237000
     23 H2          -3.5980     3.8460    -0.6670 h4         1 50R       0.032100
     24 H3           0.1510     2.3250     0.3500 h4         1 50R       0.034100
     25 H4          -7.3600    -0.0860    -0.4530 hn         1 50R       0.318500
     26 H5          -8.2380    -2.7600    -0.9430 h1         1 50R       0.043367
     27 H6          -8.5390    -2.3760     0.7820 h1         1 50R       0.043367
     28 H7          -9.2890    -1.3800    -0.5020 h1         1 50R       0.043367
     29 H8           1.2770    -1.0060     2.3940 ha         1 50R       0.135500
     30 H9           3.6890    -1.2490     1.7840 ha         1 50R       0.133500
     31 H10          2.7940    -0.0370    -2.2580 ha         1 50R       0.133500
     32 H11          0.3850     0.2000    -1.6620 ha         1 50R       0.135500
@<TRIPOS>BOND
     1     1     2 2   
     2     1     9 1   
     3     1    13 1   
     4     2     4 1   
     5     2    22 1   
     6     3     7 ar  
     7     3    12 ar  
     8     3    23 1   
     9     4     5 ar  
    10     4     7 ar  
    11     5     6 ar  
    12     5    14 1   
    13     6    12 ar  
    14     6    24 1   
    15     7    13 1   
    16     8     9 1   
    17     8    10 1   
    18     8    25 1   
    19     9    11 2   
    20    10    26 1   
    21    10    27 1   
    22    10    28 1   
    23    14    15 1   
    24    15    16 ar  
    25    15    20 ar  
    26    16    17 ar  
    27    16    29 1   
    28    17    18 ar  
    29    17    30 1   
    30    18    19 ar  
    31    18    21 1   
    32    19    20 ar  
    33    19    31 1   
    34    20    32 1   
@<TRIPOS>SUBSTRUCTURE
     1 50R         1 TEMP              0 ****  ****    0 ROOT
