@<TRIPOS>MOLECULE
50R
   32    34     1     0     0
SMALL
abcg2


@<TRIPOS>ATOM
      1 C5          -4.9490    -0.3680     0.1250 cc         1 50R      -0.142600
      2 C6          -3.6280    -0.6710     0.0680 cd         1 50R      -0.084200
      3 C11         -2.9250     2.9200     0.1330 ca         1 50R       0.342900
      4 C7          -2.8090     0.4960     0.0590 ca         1 50R      -0.086800
      5 C8          -1.4140     0.6210     0.0040 ca         1 50R       0.135100
      6 C9          -0.8700     1.8910     0.0160 ca         1 50R       0.250900
      7 C12         -3.5580     1.6770     0.1230 ca         1 50R      -0.191000
      8 N2          -7.2690    -0.9580    -0.1180 ns         1 50R      -0.502900
      9 C3          -6.0300    -1.3890     0.1480 c          1 50R       0.634300
     10 C1          -8.3980    -1.8600    -0.1290 c3         1 50R       0.093300
     11 O4          -5.7630    -2.5530     0.4060 o          1 50R      -0.587100
     12 N10         -1.6140     3.0030     0.0790 nb         1 50R      -0.628000
     13 S13         -5.2490     1.3430     0.1960 ss         1 50R       0.090400
     14 O14         -0.7090    -0.5310    -0.0620 os         1 50R      -0.238200
     15 C15          0.6640    -0.4720    -0.0560 ca         1 50R       0.100100
     16 C16          1.3420    -0.4630     1.1520 ca         1 50R      -0.116000
     17 C17          2.7290    -0.4500     1.1570 ca         1 50R      -0.070500
     18 C18          3.4150    -0.4420    -0.0490 ca         1 50R       0.194000
     19 C19          2.7350    -0.4520    -1.2590 ca         1 50R      -0.070500
     20 C20          1.3470    -0.4640    -1.2610 ca         1 50R      -0.116000
     21 I21          5.5170    -0.4220    -0.0440 i          1 50R      -0.299000
     22 H1          -3.2550    -1.6830     0.0220 ha         1 50R       0.237000
     23 H2          -3.4900     3.8430     0.1830 h4         1 50R       0.032100
     24 H3           0.2030     2.0370    -0.0270 h4         1 50R       0.034100
     25 H4          -7.4220    -0.0240    -0.4600 hn         1 50R       0.318500
     26 H5          -8.3410    -2.5740    -0.9510 h1         1 50R       0.043367
     27 H6          -8.4620    -2.4140     0.8060 h1         1 50R       0.043367
     28 H7          -9.3040    -1.2730    -0.2430 h1         1 50R       0.043367
     29 H8           0.7960    -0.4720     2.0870 ha         1 50R       0.135500
     30 H9           3.2550    -0.4460     2.1020 ha         1 50R       0.133500
     31 H10          3.2660    -0.4490    -2.2010 ha         1 50R       0.133500
     32 H11          0.8060    -0.4730    -2.1980 ha         1 50R       0.135500
@<TRIPOS>BOND
     1     1     2 2   
     2     1     9 1   
     3     1    13 1   
     4     2     4 1   
     5     2    22 1   
     6     3     7 ar  
     7     3    12 ar  
     8     3    23 1   
     9     4     5 ar  
    10     4     7 ar  
    11     5     6 ar  
    12     5    14 1   
    13     6    12 ar  
    14     6    24 1   
    15     7    13 1   
    16     8     9 1   
    17     8    10 1   
    18     8    25 1   
    19     9    11 2   
    20    10    26 1   
    21    10    27 1   
    22    10    28 1   
    23    14    15 1   
    24    15    16 ar  
    25    15    20 ar  
    26    16    17 ar  
    27    16    29 1   
    28    17    18 ar  
    29    17    30 1   
    30    18    19 ar  
    31    18    21 1   
    32    19    20 ar  
    33    19    31 1   
    34    20    32 1   
@<TRIPOS>SUBSTRUCTURE
     1 50R         1 TEMP              0 ****  ****    0 ROOT
