@<TRIPOS>MOLECULE
50U
   60    62     1     0     0
SMALL
abcg2


@<TRIPOS>ATOM
      1 C44         -5.7830    -0.7580    -0.5090 c6         1 50U      -0.061700
      2 C45         -6.3060    -0.3710     0.8760 c6         1 50U      -0.071900
      3 C46         -7.8270    -0.4490     0.9620 c6         1 50U      -0.072900
      4 C47         -8.3430    -1.8250     0.5560 c6         1 50U      -0.074400
      5 C48         -7.8480    -2.2040    -0.8350 c6         1 50U      -0.072900
      6 C49         -6.3270    -2.1290    -0.9170 c6         1 50U      -0.071900
      7 C43         -4.2570    -0.7610    -0.5820 c3         1 50U      -0.063400
      8 C5          -3.6260     0.5990    -0.3300 c3         1 50U      -0.149400
      9 C14         -2.1200     0.6010    -0.4740 c          1 50U       0.612100
     10 O32         -1.4720    -0.4190    -0.6730 o          1 50U      -0.608100
     11 N1          -1.5120     1.7980    -0.3690 n          1 50U      -0.404800
     12 C1          -0.0710     1.8890    -0.4410 c5         1 50U       0.033700
     13 C7           0.5730     1.1950     0.7550 c          1 50U       0.593100
     14 O22          0.0310     1.1390     1.8490 o          1 50U      -0.599100
     15 C2           0.1870     3.4020    -0.4080 c5         1 50U      -0.083400
     16 C3          -0.9910     3.9520     0.3890 c5         1 50U      -0.094400
     17 C4          -2.1530     3.0670    -0.0460 c5         1 50U       0.111000
     18 N23          1.8010     0.7110     0.5250 ns         1 50U      -0.503900
     19 C24          2.5920     0.0740     1.5630 c3         1 50U       0.152300
     20 C25          3.9310    -0.3240     1.0100 ca         1 50U      -0.101300
     21 C26          5.0510     0.4810     1.1960 ca         1 50U      -0.105500
     22 C27          6.2750     0.1270     0.6540 ca         1 50U      -0.082000
     23 C28          6.4070    -1.0340    -0.1040 ca         1 50U      -0.136900
     24 C21          7.7360    -1.3840    -0.6800 ce         1 50U       0.658800
     25 N46          8.7860    -0.9320    -0.1100 n2         1 50U      -0.826100
     26 N47          7.7020    -2.2130    -1.7640 nv         1 50U      -1.076200
     27 C29          5.2870    -1.8430    -0.2880 ca         1 50U      -0.082000
     28 C30          4.0660    -1.4910     0.2660 ca         1 50U      -0.105500
     29 H44         -6.1630    -0.0190    -1.2300 hc         1 50U       0.040700
     30 H45         -5.8620    -1.0420     1.6220 hc         1 50U       0.038700
     31 H45A        -5.9820     0.6390     1.1390 hc         1 50U       0.038700
     32 H46         -8.2650     0.3100     0.3040 hc         1 50U       0.037200
     33 H46A        -8.1560    -0.2040     1.9750 hc         1 50U       0.037200
     34 H47         -9.4350    -1.8470     0.5910 hc         1 50U       0.038200
     35 H47A        -7.9940    -2.5700     1.2800 hc         1 50U       0.038200
     36 H48         -8.2860    -1.5250    -1.5740 hc         1 50U       0.037200
     37 H48A        -8.1880    -3.2090    -1.0990 hc         1 50U       0.037200
     38 H49         -5.9940    -2.3680    -1.9310 hc         1 50U       0.038700
     39 H49A        -5.8910    -2.8920    -0.2620 hc         1 50U       0.038700
     40 H43         -3.9560    -1.1200    -1.5710 hc         1 50U       0.055200
     41 H43A        -3.8700    -1.4900     0.1370 hc         1 50U       0.055200
     42 H5          -3.8620     0.9540     0.6790 hc         1 50U       0.058200
     43 H5A         -4.0570     1.3450    -1.0060 hc         1 50U       0.058200
     44 H1           0.3040     1.4490    -1.3680 h1         1 50U       0.074700
     45 H2           1.1570     3.6520     0.0200 hc         1 50U       0.056700
     46 H2A          0.1700     3.7860    -1.4300 hc         1 50U       0.056700
     47 H3          -0.8140     3.8430     1.4590 hc         1 50U       0.062700
     48 H3A         -1.1820     5.0050     0.1870 hc         1 50U       0.062700
     49 H4          -2.6580     3.4800    -0.9240 h1         1 50U       0.046200
     50 H4A         -2.8970     2.9500     0.7410 h1         1 50U       0.046200
     51 HN23         2.1760     0.7460    -0.4090 hn         1 50U       0.317500
     52 H24          2.7200     0.7600     2.4030 h1         1 50U       0.060200
     53 H24A         2.0660    -0.8050     1.9440 h1         1 50U       0.060200
     54 H26          4.9680     1.3930     1.7740 ha         1 50U       0.121000
     55 H27          7.1390     0.7590     0.8100 ha         1 50U       0.129500
     56 HN46         9.6250    -1.2100    -0.6130 hn         1 50U       0.372400
     57 HN47         6.8860    -2.2020    -2.3530 hn         1 50U       0.461500
     58 HN4A         8.5630    -2.3450    -2.2710 hn         1 50U       0.461500
     59 H29          5.3590    -2.7690    -0.8450 ha         1 50U       0.129500
     60 H30          3.2100    -2.1400     0.1210 ha         1 50U       0.121000
@<TRIPOS>BOND
     1     1     2 1   
     2     1     6 1   
     3     1     7 1   
     4     1    29 1   
     5     2     3 1   
     6     2    30 1   
     7     2    31 1   
     8     3     4 1   
     9     3    32 1   
    10     3    33 1   
    11     4     5 1   
    12     4    34 1   
    13     4    35 1   
    14     5     6 1   
    15     5    36 1   
    16     5    37 1   
    17     6    38 1   
    18     6    39 1   
    19     7     8 1   
    20     7    40 1   
    21     7    41 1   
    22     8     9 1   
    23     8    42 1   
    24     8    43 1   
    25     9    10 2   
    26     9    11 1   
    27    11    12 1   
    28    11    17 1   
    29    12    13 1   
    30    12    15 1   
    31    12    44 1   
    32    13    14 2   
    33    13    18 1   
    34    15    16 1   
    35    15    45 1   
    36    15    46 1   
    37    16    17 1   
    38    16    47 1   
    39    16    48 1   
    40    17    49 1   
    41    17    50 1   
    42    18    19 1   
    43    18    51 1   
    44    19    20 1   
    45    19    52 1   
    46    19    53 1   
    47    20    21 ar  
    48    20    28 ar  
    49    21    22 ar  
    50    21    54 1   
    51    22    23 ar  
    52    22    55 1   
    53    23    24 1   
    54    23    27 ar  
    55    24    25 2   
    56    24    26 1   
    57    25    56 1   
    58    26    57 1   
    59    26    58 1   
    60    27    28 ar  
    61    27    59 1   
    62    28    60 1   
@<TRIPOS>SUBSTRUCTURE
     1 50U         1 TEMP              0 ****  ****    0 ROOT
