@<TRIPOS>MOLECULE
50U
   60    62     1     0     0
SMALL
No Charge or Current Charge


@<TRIPOS>ATOM
      1 C44         -6.2340    -0.7180    -0.4790 c6         1 50U      -0.061700
      2 C45         -6.7750    -0.1800     0.8800 c6         1 50U      -0.071900
      3 C46         -8.3120     0.0120     0.8480 c6         1 50U      -0.072900
      4 C47         -9.0360    -1.2960     0.4510 c6         1 50U      -0.074400
      5 C48         -8.5120    -1.8300    -0.9030 c6         1 50U      -0.072900
      6 C49         -6.9760    -2.0280    -0.8700 c6         1 50U      -0.071900
      7 C43         -4.6910    -0.9430    -0.4660 c3         1 50U      -0.063400
      8 C5          -3.8370     0.3330    -0.2440 c3         1 50U      -0.149400
      9 C14         -2.3100     0.1470    -0.3590 c          1 50U       0.612100
     10 O32         -1.8090    -0.9580    -0.5320 o          1 50U      -0.608100
     11 N1          -1.4890     1.2900    -0.2600 n          1 50U      -0.404800
     12 C1          -0.0050     1.2150    -0.3550 c5         1 50U       0.033700
     13 C7           0.6920     0.6710     0.9350 c          1 50U       0.593100
     14 O22          0.1940     0.4970     2.0410 o          1 50U      -0.599100
     15 C2           0.3570     2.7180    -0.5650 c5         1 50U      -0.083400
     16 C3          -0.7080     3.4380     0.3010 c5         1 50U      -0.094400
     17 C4          -1.9990     2.6670    -0.0720 c5         1 50U       0.111000
     18 N23          2.0050     0.3660     0.6520 ns         1 50U      -0.503900
     19 C24          2.9500    -0.1700     1.6260 c3         1 50U       0.152300
     20 C25          4.3350    -0.3180     1.0160 ca         1 50U      -0.101300
     21 C26          5.2410     0.7570     1.0410 ca         1 50U      -0.105500
     22 C27          6.5200     0.6230     0.4750 ca         1 50U      -0.082000
     23 C28          6.9170    -0.5840    -0.1450 ca         1 50U      -0.136900
     24 C21          8.2980    -0.7250    -0.7180 ce         1 50U       0.658800
     25 N46          9.2540     0.0610    -0.4360 n2         1 50U      -0.826100
     26 N47          8.5070    -1.6710    -1.6590 nv         1 50U      -1.076200
     27 C29          6.0040    -1.6670    -0.1470 ca         1 50U      -0.082000
     28 C30          4.7250    -1.5300     0.4210 ca         1 50U      -0.105500
     29 H44         -6.4330     0.0340    -1.2560 hc         1 50U       0.040700
     30 H45         -6.5070    -0.8740     1.6890 hc         1 50U       0.038700
     31 H45A        -6.3060     0.7820     1.1260 hc         1 50U       0.038700
     32 H46         -8.5700     0.8080     0.1360 hc         1 50U       0.037200
     33 H46A        -8.6650     0.3480     1.8330 hc         1 50U       0.037200
     34 H47        -10.1180    -1.1210     0.3900 hc         1 50U       0.038200
     35 H47A        -8.8850    -2.0550     1.2320 hc         1 50U       0.038200
     36 H48         -8.7770    -1.1280    -1.7060 hc         1 50U       0.037200
     37 H48A        -9.0050    -2.7810    -1.1440 hc         1 50U       0.037200
     38 H49         -6.6340    -2.3740    -1.8550 hc         1 50U       0.038700
     39 H49A        -6.7260    -2.8260    -0.1560 hc         1 50U       0.038700
     40 H43         -4.3900    -1.3850    -1.4250 hc         1 50U       0.055200
     41 H43A        -4.4290    -1.6800     0.3030 hc         1 50U       0.055200
     42 H5          -4.0330     0.7890     0.7320 hc         1 50U       0.058200
     43 H5A         -4.1340     1.1400    -0.9240 hc         1 50U       0.058200
     44 H1           0.3160     0.6030    -1.2090 h1         1 50U       0.074700
     45 H2           1.3830     2.9650    -0.2690 hc         1 50U       0.056700
     46 H2A          0.2520     2.9990    -1.6200 hc         1 50U       0.056700
     47 H3          -0.4850     3.3400     1.3700 hc         1 50U       0.062700
     48 H3A         -0.7830     4.5090     0.0800 hc         1 50U       0.062700
     49 H4          -2.4380     3.0450    -1.0050 h1         1 50U       0.046200
     50 H4A         -2.7520     2.7360     0.7240 h1         1 50U       0.046200
     51 HN23         2.3320     0.5350    -0.2920 hn         1 50U       0.317500
     52 H24          2.9950     0.5060     2.4910 h1         1 50U       0.060200
     53 H24A         2.5880    -1.1460     1.9760 h1         1 50U       0.060200
     54 H26          4.9540     1.7010     1.5020 ha         1 50U       0.121000
     55 H27          7.2020     1.4700     0.5110 ha         1 50U       0.129500
     56 HN46        10.1220    -0.3590    -0.7830 hn         1 50U       0.372400
     57 HN47         7.6630    -2.0560    -2.0690 hn         1 50U       0.461500
     58 HN4A         9.2570    -1.4910    -2.3160 hn         1 50U       0.461500
     59 H29          6.2810    -2.6270    -0.5780 ha         1 50U       0.129500
     60 H30          4.0380    -2.3740     0.4020 ha         1 50U       0.121000
@<TRIPOS>BOND
     1     1     2 1   
     2     1     6 1   
     3     1     7 1   
     4     1    29 1   
     5     2     3 1   
     6     2    30 1   
     7     2    31 1   
     8     3     4 1   
     9     3    32 1   
    10     3    33 1   
    11     4     5 1   
    12     4    34 1   
    13     4    35 1   
    14     5     6 1   
    15     5    36 1   
    16     5    37 1   
    17     6    38 1   
    18     6    39 1   
    19     7     8 1   
    20     7    40 1   
    21     7    41 1   
    22     8     9 1   
    23     8    42 1   
    24     8    43 1   
    25     9    10 2   
    26     9    11 1   
    27    11    12 1   
    28    11    17 1   
    29    12    13 1   
    30    12    15 1   
    31    12    44 1   
    32    13    14 2   
    33    13    18 1   
    34    15    16 1   
    35    15    45 1   
    36    15    46 1   
    37    16    17 1   
    38    16    47 1   
    39    16    48 1   
    40    17    49 1   
    41    17    50 1   
    42    18    19 1   
    43    18    51 1   
    44    19    20 1   
    45    19    52 1   
    46    19    53 1   
    47    20    21 ar  
    48    20    28 ar  
    49    21    22 ar  
    50    21    54 1   
    51    22    23 ar  
    52    22    55 1   
    53    23    24 1   
    54    23    27 ar  
    55    24    25 2   
    56    24    26 1   
    57    25    56 1   
    58    26    57 1   
    59    26    58 1   
    60    27    28 ar  
    61    27    59 1   
    62    28    60 1   
@<TRIPOS>SUBSTRUCTURE
     1 50U         1 TEMP              0 ****  ****    0 ROOT
