@<TRIPOS>MOLECULE
50V
   60    65     1     0     0
SMALL
bcc


@<TRIPOS>ATOM
      1 N14         -1.0860     0.4940     0.3950 na         1 50V      -0.126100
      2 C13         -2.3140    -0.0290     0.7480 cc         1 50V      -0.160300
      3 C18         -0.6940     1.8930     0.4280 c3         1 50V       0.045300
      4 C15         -3.5760     0.7340     0.8400 c          1 50V       0.710300
      5 C19         -0.2470     2.3390     1.8100 c3         1 50V      -0.116100
      6 C20         -3.3350     1.4570    -1.5050 cx         1 50V       0.048700
      7 C21         -4.9730     2.4910    -0.0110 cx         1 50V       0.048700
      8 C22         -3.2160     0.1260    -2.1720 cx         1 50V      -0.130650
      9 C23         -4.2570     1.0960    -2.6290 cx         1 50V      -0.130650
     10 C24         -4.7480     3.9200    -0.3930 cx         1 50V      -0.130650
     11 C11         -1.4370    -4.8180     1.2610 c3         1 50V       0.035600
     12 C12         -2.2010    -1.3800     0.9530 cd         1 50V      -0.100200
     13 C27          3.5910     1.1490    -0.4900 cc         1 50V      -0.309300
     14 C1          -0.8490    -1.7150     0.7030 ca         1 50V      -0.256100
     15 C2          -0.1780    -0.5240     0.3830 ca         1 50V       0.488800
     16 N3           1.1250    -0.3480     0.1240 nb         1 50V      -0.782000
     17 C4           1.8890    -1.4190     0.1360 ca         1 50V       0.782200
     18 C5           1.3470    -2.7010     0.4230 ca         1 50V      -0.132900
     19 C6          -0.0070    -2.8400     0.7030 ca         1 50V       0.018800
     20 N7           3.2200    -1.3340    -0.1250 nu         1 50V      -0.825600
     21 N8           1.9760    -3.9180     0.4830 nc         1 50V      -0.552100
     22 C9           1.0300    -4.7580     0.7880 cd         1 50V       0.385700
     23 N10         -0.1900    -4.1670     0.9340 na         1 50V      -0.129300
     24 N16         -3.8820     1.5770    -0.1830 n          1 50V      -0.439800
     25 O17         -4.3090     0.5850     1.8060 o          1 50V      -0.574100
     26 C25         -4.8820     3.5370     1.0490 cx         1 50V      -0.130650
     27 C26          3.9600    -0.2080    -0.4310 cc         1 50V       0.576200
     28 C28          4.7560     1.8020    -0.8390 cd         1 50V      -0.077600
     29 N29          5.7040     0.8570    -0.9660 na         1 50V       0.111400
     30 N30          5.2390    -0.3740    -0.7180 nd         1 50V      -0.583800
     31 C31          5.0000     3.2540    -1.0520 c3         1 50V      -0.029800
     32 C32          7.0980     1.0260    -1.2840 c3         1 50V       0.048600
     33 H1           0.1050     2.0280    -0.2990 h1         1 50V       0.064700
     34 H2          -1.5300     2.5010     0.0920 h1         1 50V       0.064700
     35 H3          -1.0500     2.2290     2.5390 hc         1 50V       0.049033
     36 H4           0.6120     1.7630     2.1540 hc         1 50V       0.049033
     37 H5           0.0420     3.3900     1.7830 hc         1 50V       0.049033
     38 H6          -2.5670     2.1840    -1.7480 h1         1 50V       0.082200
     39 H7          -5.9580     2.0820    -0.2180 h1         1 50V       0.082200
     40 H8          -2.3410    -0.0350    -2.7890 hc         1 50V       0.078450
     41 H9          -3.5500    -0.7530    -1.6370 hc         1 50V       0.078450
     42 H10         -5.2860     0.8700    -2.3830 hc         1 50V       0.078450
     43 H11         -4.1230     1.6130    -3.5700 hc         1 50V       0.078450
     44 H12         -3.7650     4.2010    -0.7490 hc         1 50V       0.078450
     45 H13         -5.5630     4.4430    -0.8740 hc         1 50V       0.078450
     46 H14         -2.1670    -4.6620     0.4700 h1         1 50V       0.055367
     47 H15         -1.2630    -5.8860     1.3670 h1         1 50V       0.055367
     48 H16         -1.8370    -4.4350     2.1990 h1         1 50V       0.055367
     49 H17         -3.0170    -2.0460     1.1890 ha         1 50V       0.157000
     50 H18          2.6270     1.5870    -0.3080 ha         1 50V       0.181000
     51 H19          3.7320    -2.2040    -0.1250 hn         1 50V       0.477800
     52 H20          1.1530    -5.8230     0.9210 h5         1 50V       0.063800
     53 H21         -5.7900     3.7970     1.5770 hc         1 50V       0.078450
     54 H22         -3.9890     3.5590     1.6600 hc         1 50V       0.078450
     55 H23          5.7640     3.6420    -0.3770 hc         1 50V       0.049033
     56 H24          5.3220     3.4680    -2.0720 hc         1 50V       0.049033
     57 H25          4.0840     3.8110    -0.8700 hc         1 50V       0.049033
     58 H26          7.7240     0.7740    -0.4280 h1         1 50V       0.052700
     59 H27          7.3730     0.3880    -2.1220 h1         1 50V       0.052700
     60 H28          7.2870     2.0590    -1.5600 h1         1 50V       0.052700
@<TRIPOS>BOND
     1     1     2 1   
     2     1     3 1   
     3     1    15 1   
     4     2     4 1   
     5     2    12 2   
     6     3     5 1   
     7     3    33 1   
     8     3    34 1   
     9     4    24 1   
    10     4    25 2   
    11     5    35 1   
    12     5    36 1   
    13     5    37 1   
    14     6     8 1   
    15     6     9 1   
    16     6    24 1   
    17     6    38 1   
    18     7    10 1   
    19     7    24 1   
    20     7    26 1   
    21     7    39 1   
    22     8     9 1   
    23     8    40 1   
    24     8    41 1   
    25     9    42 1   
    26     9    43 1   
    27    10    26 1   
    28    10    44 1   
    29    10    45 1   
    30    11    23 1   
    31    11    46 1   
    32    11    47 1   
    33    11    48 1   
    34    12    14 1   
    35    12    49 1   
    36    13    27 1   
    37    13    28 2   
    38    13    50 1   
    39    14    15 ar  
    40    14    19 ar  
    41    15    16 ar  
    42    16    17 ar  
    43    17    18 ar  
    44    17    20 1   
    45    18    19 ar  
    46    18    21 1   
    47    19    23 1   
    48    20    27 1   
    49    20    51 1   
    50    21    22 2   
    51    22    23 1   
    52    22    52 1   
    53    26    53 1   
    54    26    54 1   
    55    27    30 2   
    56    28    29 1   
    57    28    31 1   
    58    29    30 1   
    59    29    32 1   
    60    31    55 1   
    61    31    56 1   
    62    31    57 1   
    63    32    58 1   
    64    32    59 1   
    65    32    60 1   
@<TRIPOS>SUBSTRUCTURE
     1 50V         1 TEMP              0 ****  ****    0 ROOT
