@<TRIPOS>MOLECULE
50V
   60    65     1     0     0
SMALL
No Charge or Current Charge


@<TRIPOS>ATOM
      1 N14         -1.1370     0.4960     0.2790 na         1 50V      -0.155400
      2 C13         -2.4010    -0.0920     0.5660 cc         1 50V      -0.160300
      3 C18         -0.7890     1.9310     0.3700 c3         1 50V       0.074600
      4 C15         -3.8040     0.4290     0.5990 c          1 50V       0.643300
      5 C19         -0.0320     2.3050     1.6620 c3         1 50V      -0.116100
      6 C20         -3.4380     1.8410    -1.4800 cx         1 50V       0.048700
      7 C21         -5.3610     2.2880    -0.0030 cx         1 50V       0.048700
      8 C22         -2.9610     0.7790    -2.4470 cx         1 50V      -0.130650
      9 C23         -4.1330     1.6550    -2.8090 cx         1 50V      -0.130650
     10 C24         -5.4570     3.7930    -0.1100 cx         1 50V      -0.130650
     11 C11         -1.4690    -4.5790     1.6660 c3         1 50V       0.064900
     12 C12         -2.0840    -1.3980     0.9090 cd         1 50V      -0.150200
     13 C27          3.8600     1.0270    -0.5500 cc         1 50V      -0.226000
     14 C1          -0.6780    -1.6430     0.7120 ca         1 50V      -0.190800
     15 C2          -0.1160    -0.4580     0.2830 ca         1 50V       0.423500
     16 N3           1.1950    -0.3440    -0.0390 nb         1 50V      -0.782000
     17 C4           1.9560    -1.4480     0.0950 ca         1 50V       0.716900
     18 C5           1.4380    -2.6980     0.5380 ca         1 50V      -0.067600
     19 C6           0.1150    -2.7840     0.8470 ca         1 50V       0.018800
     20 N7           3.2850    -1.3390    -0.2340 nu         1 50V      -0.880800
     21 N8           2.0820    -3.9300     0.7150 nc         1 50V      -0.552100
     22 C9           1.0750    -4.7270     1.1390 cd         1 50V       0.385700
     23 N10         -0.1630    -4.0660     1.2340 na         1 50V      -0.158600
     24 N16         -4.1140     1.5540    -0.2080 n          1 50V      -0.372800
     25 O17         -4.6740    -0.1140     1.2700 o          1 50V      -0.574100
     26 C25         -5.6110     3.1210     1.2320 cx         1 50V      -0.130650
     27 C26          4.1450    -0.3420    -0.5440 cc         1 50V       0.510900
     28 C28          5.0170     1.6510    -0.9000 cd         1 50V      -0.128300
     29 N29          5.9360     0.6050    -1.0810 na         1 50V       0.132800
     30 N30          5.3760    -0.6480    -0.8490 nd         1 50V      -0.583800
     31 C31          5.3150     3.1190    -1.0670 c3         1 50V      -0.029800
     32 C32          7.3510     0.7410    -1.4660 c3         1 50V       0.077900
     33 H1          -0.1910     2.2100    -0.5070 h1         1 50V       0.064700
     34 H2          -1.7060     2.5270     0.3630 h1         1 50V       0.064700
     35 H3          -0.6170     2.0240     2.5450 hc         1 50V       0.049033
     36 H4           0.9410     1.8030     1.7150 hc         1 50V       0.049033
     37 H5           0.1440     3.3870     1.6970 hc         1 50V       0.049033
     38 H6          -2.8530     2.7530    -1.3690 h1         1 50V       0.082200
     39 H7          -6.1850     1.6920    -0.3950 h1         1 50V       0.082200
     40 H8          -2.0160     0.9540    -2.9540 hc         1 50V       0.078450
     41 H9          -3.1670    -0.2620    -2.2120 hc         1 50V       0.078450
     42 H10         -5.1210     1.2000    -2.8110 hc         1 50V       0.078450
     43 H11         -3.9820     2.4190    -3.5670 hc         1 50V       0.078450
     44 H12         -4.5430     4.3530    -0.2900 hc         1 50V       0.078450
     45 H13         -6.3460     4.2070    -0.5780 hc         1 50V       0.078450
     46 H14         -2.1880    -4.4970     0.8410 h1         1 50V       0.055367
     47 H15         -1.3750    -5.6330     1.9570 h1         1 50V       0.055367
     48 H16         -1.8270    -3.9990     2.5250 h1         1 50V       0.055367
     49 H17         -2.8190    -2.1390     1.2150 ha         1 50V       0.207000
     50 H18          2.9120     1.4910    -0.3160 ha         1 50V       0.163000
     51 H19          3.7470    -2.2370    -0.1880 hn         1 50V       0.533000
     52 H20          1.1660    -5.7770     1.3930 h5         1 50V       0.063800
     53 H21         -6.6050     3.0820     1.6710 hc         1 50V       0.078450
     54 H22         -4.7990     3.2240     1.9470 hc         1 50V       0.078450
     55 H23          6.1050     3.4420    -0.3780 hc         1 50V       0.049033
     56 H24          5.6470     3.3400    -2.0890 hc         1 50V       0.049033
     57 H25          4.4270     3.7290    -0.8660 hc         1 50V       0.049033
     58 H26          7.8780     1.3360    -0.7110 h1         1 50V       0.052700
     59 H27          7.8190    -0.2480    -1.5380 h1         1 50V       0.052700
     60 H28          7.4170     1.2440    -2.4370 h1         1 50V       0.052700
@<TRIPOS>BOND
     1     1     2 1   
     2     1     3 1   
     3     1    15 1   
     4     2     4 1   
     5     2    12 2   
     6     3     5 1   
     7     3    33 1   
     8     3    34 1   
     9     4    24 1   
    10     4    25 2   
    11     5    35 1   
    12     5    36 1   
    13     5    37 1   
    14     6     8 1   
    15     6     9 1   
    16     6    24 1   
    17     6    38 1   
    18     7    10 1   
    19     7    24 1   
    20     7    26 1   
    21     7    39 1   
    22     8     9 1   
    23     8    40 1   
    24     8    41 1   
    25     9    42 1   
    26     9    43 1   
    27    10    26 1   
    28    10    44 1   
    29    10    45 1   
    30    11    23 1   
    31    11    46 1   
    32    11    47 1   
    33    11    48 1   
    34    12    14 1   
    35    12    49 1   
    36    13    27 1   
    37    13    28 2   
    38    13    50 1   
    39    14    15 ar  
    40    14    19 ar  
    41    15    16 ar  
    42    16    17 ar  
    43    17    18 ar  
    44    17    20 1   
    45    18    19 ar  
    46    18    21 1   
    47    19    23 1   
    48    20    27 1   
    49    20    51 1   
    50    21    22 2   
    51    22    23 1   
    52    22    52 1   
    53    26    53 1   
    54    26    54 1   
    55    27    30 2   
    56    28    29 1   
    57    28    31 1   
    58    29    30 1   
    59    29    32 1   
    60    31    55 1   
    61    31    56 1   
    62    31    57 1   
    63    32    58 1   
    64    32    59 1   
    65    32    60 1   
@<TRIPOS>SUBSTRUCTURE
     1 50V         1 TEMP              0 ****  ****    0 ROOT
