@<TRIPOS>MOLECULE
50W
   59    64     1     0     0
SMALL
abcg2


@<TRIPOS>ATOM
      1 C13         -1.0190    48.4560    -1.2810 c          1 50W       0.644300
      2 C17          0.3710    46.0470     1.3310 c3         1 50W      -0.112100
      3 C16         -0.6080    47.1920     1.5210 c3         1 50W       0.067600
      4 C20         -0.1620    49.3610    -3.3250 cx         1 50W       0.049700
      5 C21         -1.0990    47.1010    -3.3470 cx         1 50W       0.049700
      6 C22         -0.6180    45.7830    -2.8400 cx         1 50W      -0.130150
      7 C23          0.0430    46.4100    -4.0260 cx         1 50W      -0.130150
      8 C24         -0.7560    49.8260    -4.6150 cx         1 50W      -0.130150
      9 C11         -1.9490    47.5130    -0.6270 cc         1 50W      -0.150300
     10 C1          -3.7630    46.3280    -0.0720 ca         1 50W      -0.180800
     11 C2          -2.8650    46.3270     1.0110 ca         1 50W       0.419500
     12 N3          -3.0040    45.7050     2.1890 nb         1 50W      -0.780000
     13 C4          -4.1100    45.0280     2.3830 ca         1 50W       0.702900
     14 C5          -5.1230    44.9580     1.3960 ca         1 50W      -0.057600
     15 C6          -4.9410    45.6040     0.1780 ca         1 50W       0.016800
     16 N7          -6.3280    44.3080     1.4210 nc         1 50W      -0.547100
     17 C8          -6.8530    44.5560     0.2570 cd         1 50W       0.388700
     18 N9          -6.0630    45.3330    -0.5380 na         1 50W      -0.157600
     19 C10         -3.1610    47.0790    -1.1050 cd         1 50W      -0.164200
     20 N12         -1.7820    47.0730     0.6710 na         1 50W      -0.137400
     21 C14         -6.3530    45.7780    -1.8820 c3         1 50W       0.064900
     22 N15         -4.2910    44.3670     3.5650 nu         1 50W      -0.875800
     23 N18         -0.8300    48.3070    -2.6170 n          1 50W      -0.363800
     24 O19         -0.4920    49.3640    -0.6520 o          1 50W      -0.588100
     25 C25         -0.7960    50.7090    -3.4060 cx         1 50W      -0.130150
     26 C26         -3.4010    44.2580     4.5950 cc         1 50W       0.685300
     27 N27         -3.6940    43.5880     5.6620 nd         1 50W      -0.722000
     28 S28         -1.8180    44.9670     4.5930 ss         1 50W       0.005600
     29 C29         -2.6540    43.5930     6.5620 cd         1 50W       0.326300
     30 C30         -1.5500    44.2820     6.1710 cc         1 50W      -0.268300
     31 C31         -2.8420    42.8580     7.8470 c3         1 50W      -0.118400
     32 C32         -0.2500    44.5030     6.8670 c3         1 50W      -0.007800
     33 H1           1.2300    46.1860     1.9880 hc         1 50W       0.045367
     34 H2          -0.0870    45.0890     1.5770 hc         1 50W       0.045367
     35 H3           0.7410    46.0020     0.3060 hc         1 50W       0.045367
     36 H4          -0.1350    48.1480     1.3190 h1         1 50W       0.081200
     37 H5          -0.9610    47.2160     2.5510 h1         1 50W       0.081200
     38 H6           0.9230    49.3330    -3.2720 h1         1 50W       0.081700
     39 H7          -2.0380    47.0940    -3.8920 h1         1 50W       0.081700
     40 H8          -1.2680    44.9300    -2.9810 hc         1 50W       0.078950
     41 H9          -0.0600    45.7660    -1.9110 hc         1 50W       0.078950
     42 H10         -0.1390    45.9990    -5.0100 hc         1 50W       0.078950
     43 H11          1.0370    46.8160    -3.8850 hc         1 50W       0.078950
     44 H12         -0.0760    50.0650    -5.4220 hc         1 50W       0.078950
     45 H13         -1.6870    49.3740    -4.9350 hc         1 50W       0.078950
     46 H14         -7.8150    44.2040    -0.0860 h5         1 50W       0.065800
     47 H15         -3.5740    47.3050    -2.0750 ha         1 50W       0.201000
     48 H16         -6.3940    46.8650    -1.9250 h1         1 50W       0.055367
     49 H17         -5.5920    45.4210    -2.5740 h1         1 50W       0.055367
     50 H18         -7.3160    45.3800    -2.1890 h1         1 50W       0.055367
     51 H19         -5.1590    43.8650     3.6890 hn         1 50W       0.539000
     52 H20         -0.1430    51.5710    -3.3660 hc         1 50W       0.078950
     53 H21         -1.7540    50.8490    -2.9220 hc         1 50W       0.078950
     54 H22         -3.0330    41.7990     7.6640 hc         1 50W       0.046700
     55 H23         -1.9700    42.9310     8.4920 hc         1 50W       0.046700
     56 H24         -3.6990    43.2500     8.3960 hc         1 50W       0.046700
     57 H25          0.5760    44.0140     6.3490 hc         1 50W       0.042367
     58 H26         -0.0060    45.5640     6.9390 hc         1 50W       0.042367
     59 H27         -0.2830    44.1070     7.8810 hc         1 50W       0.042367
@<TRIPOS>BOND
     1     1     9 1   
     2     1    23 1   
     3     1    24 2   
     4     2     3 1   
     5     2    33 1   
     6     2    34 1   
     7     2    35 1   
     8     3    20 1   
     9     3    36 1   
    10     3    37 1   
    11     4     8 1   
    12     4    23 1   
    13     4    25 1   
    14     4    38 1   
    15     5     6 1   
    16     5     7 1   
    17     5    23 1   
    18     5    39 1   
    19     6     7 1   
    20     6    40 1   
    21     6    41 1   
    22     7    42 1   
    23     7    43 1   
    24     8    25 1   
    25     8    44 1   
    26     8    45 1   
    27     9    19 2   
    28     9    20 1   
    29    10    11 ar  
    30    10    15 ar  
    31    10    19 1   
    32    11    12 ar  
    33    11    20 1   
    34    12    13 ar  
    35    13    14 ar  
    36    13    22 1   
    37    14    15 ar  
    38    14    16 1   
    39    15    18 1   
    40    16    17 2   
    41    17    18 1   
    42    17    46 1   
    43    18    21 1   
    44    19    47 1   
    45    21    48 1   
    46    21    49 1   
    47    21    50 1   
    48    22    26 1   
    49    22    51 1   
    50    25    52 1   
    51    25    53 1   
    52    26    27 2   
    53    26    28 1   
    54    27    29 1   
    55    28    30 1   
    56    29    30 2   
    57    29    31 1   
    58    30    32 1   
    59    31    54 1   
    60    31    55 1   
    61    31    56 1   
    62    32    57 1   
    63    32    58 1   
    64    32    59 1   
@<TRIPOS>SUBSTRUCTURE
     1 50W         1 TEMP              0 ****  ****    0 ROOT
