@<TRIPOS>MOLECULE
50W
   59    64     1     0     0
SMALL
No Charge or Current Charge


@<TRIPOS>ATOM
      1 C13         -0.7760    48.3840    -1.4940 c          1 50W       0.644300
      2 C17          0.9180    46.4640     1.2810 c3         1 50W      -0.112100
      3 C16         -0.2960    47.3660     1.5750 c3         1 50W       0.067600
      4 C20         -0.3680    49.4860    -3.7020 cx         1 50W       0.049700
      5 C21         -1.5800    47.3430    -3.6820 cx         1 50W       0.049700
      6 C22         -1.2050    45.8880    -3.5030 cx         1 50W      -0.130150
      7 C23         -0.8090    46.6160    -4.7620 cx         1 50W      -0.130150
      8 C24         -1.0650    50.1690    -4.8560 cx         1 50W      -0.130150
      9 C11         -1.6340    47.4830    -0.6480 cc         1 50W      -0.150300
     10 C1          -3.3870    46.1500     0.1180 ca         1 50W      -0.180800
     11 C2          -2.4870    46.2590     1.1560 ca         1 50W       0.419500
     12 N3          -2.6720    45.6500     2.3540 nb         1 50W      -0.780000
     13 C4          -3.7930    44.9180     2.4990 ca         1 50W       0.702900
     14 C5          -4.7630    44.7680     1.4690 ca         1 50W      -0.057600
     15 C6          -4.5490    45.3910     0.2760 ca         1 50W       0.016800
     16 N7          -5.9650    44.0510     1.4580 nc         1 50W      -0.547100
     17 C8          -6.4330    44.2830     0.2100 cd         1 50W       0.388700
     18 N9          -5.5930    45.1070    -0.5600 na         1 50W      -0.157600
     19 C10         -2.8650    46.9210    -0.9800 cd         1 50W      -0.164200
     20 N12         -1.4490    47.0720     0.7010 na         1 50W      -0.137400
     21 C14         -5.7330    45.5460    -1.9540 c3         1 50W       0.064900
     22 N15         -3.9700    44.3080     3.7070 nu         1 50W      -0.875800
     23 N18         -0.9920    48.4330    -2.9000 n          1 50W      -0.363800
     24 O19          0.1060    49.0730    -0.9930 o          1 50W      -0.588100
     25 C25         -0.7760    50.9360    -3.5900 cx         1 50W      -0.130150
     26 C26         -3.2620    44.2020     4.8470 cc         1 50W       0.685300
     27 N27         -3.8330    43.4810     5.7810 nd         1 50W      -0.722000
     28 S28         -1.6950    44.8900     5.2170 ss         1 50W       0.005600
     29 C29         -3.0110    43.4420     6.8970 cd         1 50W       0.326300
     30 C30         -1.8250    44.1370     6.7820 cc         1 50W      -0.268300
     31 C31         -3.4530    42.6710     8.1100 c3         1 50W      -0.118400
     32 C32         -0.7320    44.2830     7.8090 c3         1 50W      -0.007800
     33 H1           1.7500    46.7150     1.9490 hc         1 50W       0.045367
     34 H2           0.6590    45.4090     1.4340 hc         1 50W       0.045367
     35 H3           1.2550    46.5920     0.2460 hc         1 50W       0.045367
     36 H4          -0.0110    48.4180     1.4500 h1         1 50W       0.081200
     37 H5          -0.5920    47.2390     2.6240 h1         1 50W       0.081200
     38 H6           0.6940    49.2600    -3.8050 h1         1 50W       0.081700
     39 H7          -2.6160    47.5990    -3.9090 h1         1 50W       0.081700
     40 H8          -2.0020    45.1520    -3.5680 hc         1 50W       0.078950
     41 H9          -0.4200    45.6490    -2.7900 hc         1 50W       0.078950
     42 H10         -1.3380    46.3700    -5.6790 hc         1 50W       0.078950
     43 H11          0.2420    46.8580    -4.8930 hc         1 50W       0.078950
     44 H12         -0.4710    50.3970    -5.7370 hc         1 50W       0.078950
     45 H13         -2.1000    49.9040    -5.0600 hc         1 50W       0.078950
     46 H14         -7.3560    43.8900    -0.2000 h5         1 50W       0.065800
     47 H15         -3.4020    47.0940    -1.9050 ha         1 50W       0.201000
     48 H16         -5.8060    46.6400    -1.9900 h1         1 50W       0.055367
     49 H17         -4.8630    45.2160    -2.5350 h1         1 50W       0.055367
     50 H18         -6.6410    45.1110    -2.3900 h1         1 50W       0.055367
     51 H19         -4.8330    43.7870     3.7620 hn         1 50W       0.539000
     52 H20          0.0130    51.6830    -3.6150 hc         1 50W       0.078950
     53 H21         -1.6140    51.1780    -2.9410 hc         1 50W       0.078950
     54 H22         -4.4340    42.2050     7.9590 hc         1 50W       0.046700
     55 H23         -2.7370    41.8760     8.3470 hc         1 50W       0.046700
     56 H24         -3.5270    43.3300     8.9830 hc         1 50W       0.046700
     57 H25         -0.3240    43.3040     8.0860 hc         1 50W       0.042367
     58 H26          0.0940    44.8960     7.4290 hc         1 50W       0.042367
     59 H27         -1.1140    44.7600     8.7200 hc         1 50W       0.042367
@<TRIPOS>BOND
     1     1     9 1   
     2     1    23 1   
     3     1    24 2   
     4     2     3 1   
     5     2    33 1   
     6     2    34 1   
     7     2    35 1   
     8     3    20 1   
     9     3    36 1   
    10     3    37 1   
    11     4     8 1   
    12     4    23 1   
    13     4    25 1   
    14     4    38 1   
    15     5     6 1   
    16     5     7 1   
    17     5    23 1   
    18     5    39 1   
    19     6     7 1   
    20     6    40 1   
    21     6    41 1   
    22     7    42 1   
    23     7    43 1   
    24     8    25 1   
    25     8    44 1   
    26     8    45 1   
    27     9    19 2   
    28     9    20 1   
    29    10    11 ar  
    30    10    15 ar  
    31    10    19 1   
    32    11    12 ar  
    33    11    20 1   
    34    12    13 ar  
    35    13    14 ar  
    36    13    22 1   
    37    14    15 ar  
    38    14    16 1   
    39    15    18 1   
    40    16    17 2   
    41    17    18 1   
    42    17    46 1   
    43    18    21 1   
    44    19    47 1   
    45    21    48 1   
    46    21    49 1   
    47    21    50 1   
    48    22    26 1   
    49    22    51 1   
    50    25    52 1   
    51    25    53 1   
    52    26    27 2   
    53    26    28 1   
    54    27    29 1   
    55    28    30 1   
    56    29    30 2   
    57    29    31 1   
    58    30    32 1   
    59    31    54 1   
    60    31    55 1   
    61    31    56 1   
    62    32    57 1   
    63    32    58 1   
    64    32    59 1   
@<TRIPOS>SUBSTRUCTURE
     1 50W         1 TEMP              0 ****  ****    0 ROOT
