@<TRIPOS>MOLECULE
50X
   67    71     1     0     0
SMALL
No Charge or Current Charge


@<TRIPOS>ATOM
      1 N1          -1.9570     0.0470     0.6150 n          1 50X      -0.399800
      2 C2          -2.9240    -0.3190     1.6720 c5         1 50X       0.158000
      3 C3          -2.9190    -1.8730     1.6000 c5         1 50X      -0.090400
      4 C4          -1.4300    -2.1530     1.2880 c5         1 50X      -0.096400
      5 C5          -1.1360    -1.1080     0.1790 c5         1 50X       0.101000
      6 C6           2.8570     0.3470     1.4950 ca         1 50X      -0.065200
      7 C7           3.0800     1.6930     1.4270 ca         1 50X       0.062400
      8 C8           2.1570     2.5990     1.9690 ca         1 50X      -0.036000
      9 C9           0.9980     2.0860     2.5920 ca         1 50X      -0.132000
     10 C10          0.7850     0.6890     2.6690 ca         1 50X      -0.078000
     11 C11          1.7250    -0.2030     2.1130 ca         1 50X      -0.114000
     12 N12          3.9150    -0.2530     0.8760 na         1 50X      -0.158600
     13 C13          4.7850     0.7680     0.4570 cc         1 50X       0.304800
     14 N14          4.2820     1.9820     0.7870 nd         1 50X      -0.514100
     15 C15          1.4000    -2.1990    -2.4340 cc         1 50X      -0.239300
     16 S16          2.7810    -1.2160    -1.9590 ss         1 50X       0.272000
     17 C17          2.9400    -2.1060    -0.4470 cc         1 50X      -0.268300
     18 C18          2.0210    -3.1240    -0.3800 cd         1 50X      -0.098000
     19 C19          1.1510    -3.1760    -1.5020 cd         1 50X      -0.132000
     20 C20         -1.6680     1.3890     0.2800 c          1 50X       0.577100
     21 C21         -0.7470     1.6780    -0.9490 c3         1 50X       0.061300
     22 C22         -1.3470     1.1410    -2.2860 c3         1 50X       0.081300
     23 C23         -0.2500     0.4240    -3.1270 c          1 50X       0.579100
     24 O24          0.7410     0.9950    -3.5670 o          1 50X      -0.570100
     25 N25         -0.4500    -0.9300    -3.3070 ns         1 50X      -0.513900
     26 O26         -0.4200     3.0930    -1.0850 oh         1 50X      -0.647000
     27 C27          0.6100    -1.8650    -3.6650 c3         1 50X       0.170300
     28 O28         -1.9780     2.2370    -2.9870 oh         1 50X      -0.635000
     29 O29         -2.1400     2.3170     0.9290 o          1 50X      -0.595100
     30 C30          3.9580    -1.7000     0.5870 c3         1 50X       0.155900
     31 C31          6.0990     0.5350    -0.2810 c3         1 50X       0.314700
     32 F32          6.9400    -0.2480     0.4350 f          1 50X      -0.100000
     33 F33          5.9040    -0.0750    -1.4730 f          1 50X      -0.100000
     34 F34          6.7600     1.6900    -0.5350 f          1 50X      -0.100000
     35 C35         -4.3240     0.1650     1.2710 ca         1 50X      -0.080300
     36 C36         -5.1280     0.8230     2.2230 ca         1 50X      -0.086000
     37 C37         -6.4090     1.2860     1.8820 ca         1 50X       0.120000
     38 C38         -6.9060     1.0980     0.5830 ca         1 50X      -0.096000
     39 C39         -6.1150     0.4460    -0.3780 ca         1 50X      -0.101000
     40 C40         -4.8330    -0.0170    -0.0370 ca         1 50X      -0.085000
     41 Cl41        -7.3960     2.1040     3.0870 cl         1 50X      -0.207000
     42 H2          -2.6070     0.0570     2.6540 h1         1 50X       0.067700
     43 H3          -3.2510    -2.3340     2.5370 hc         1 50X       0.063200
     44 H3A         -3.5590    -2.2650     0.8010 hc         1 50X       0.063200
     45 H4          -0.8040    -1.9830     2.1710 hc         1 50X       0.059700
     46 H4A         -1.2480    -3.1800     0.9520 hc         1 50X       0.059700
     47 H5          -1.4750    -1.4760    -0.7970 h1         1 50X       0.046700
     48 H5A         -0.0650    -0.8770     0.1140 h1         1 50X       0.046700
     49 H9           0.2670     2.7680     3.0210 ha         1 50X       0.119000
     50 H10         -0.1050     0.3030     3.1590 ha         1 50X       0.117000
     51 H11          1.5740    -1.2780     2.1640 ha         1 50X       0.117000
     52 H18          1.9400    -3.8020     0.4650 ha         1 50X       0.137000
     53 H19          0.3390    -3.8920    -1.5900 ha         1 50X       0.136000
     54 H21          0.1780     1.1230    -0.7450 h1         1 50X       0.063700
     55 H22         -2.1060     0.3830    -2.0540 h1         1 50X       0.078700
     56 HN25        -1.3210    -1.3190    -2.9680 hn         1 50X       0.309500
     57 HO26        -0.6480     3.5160    -0.2220 ho         1 50X       0.483000
     58 H27          1.2610    -1.4210    -4.4310 h1         1 50X       0.075200
     59 H27A         0.1630    -2.7770    -4.0830 h1         1 50X       0.075200
     60 HO28        -1.4850     3.0290    -2.6570 ho         1 50X       0.479000
     61 H30          4.9600    -1.9780     0.2380 h1         1 50X       0.074200
     62 H30A         3.7740    -2.2480     1.5200 h1         1 50X       0.074200
     63 H36         -4.7580     0.9790     3.2330 ha         1 50X       0.127000
     64 H38         -7.8980     1.4580     0.3220 ha         1 50X       0.130000
     65 H39         -6.4950     0.3000    -1.3870 ha         1 50X       0.120000
     66 H40         -4.2330    -0.5180    -0.7930 ha         1 50X       0.123000
     67 H8           2.3330     3.6700     1.9120 ha         1 50X       0.133000
@<TRIPOS>BOND
     1     1     2 1   
     2     1     5 1   
     3     1    20 1   
     4     2     3 1   
     5     2    35 1   
     6     2    42 1   
     7     3     4 1   
     8     3    43 1   
     9     3    44 1   
    10     4     5 1   
    11     4    45 1   
    12     4    46 1   
    13     5    47 1   
    14     5    48 1   
    15     6     7 ar  
    16     6    11 ar  
    17     6    12 1   
    18     7     8 ar  
    19     7    14 1   
    20     8     9 ar  
    21     8    67 1   
    22     9    10 ar  
    23     9    49 1   
    24    10    11 ar  
    25    10    50 1   
    26    11    51 1   
    27    12    13 1   
    28    12    30 1   
    29    13    14 2   
    30    13    31 1   
    31    15    16 1   
    32    15    19 2   
    33    15    27 1   
    34    16    17 1   
    35    17    18 2   
    36    17    30 1   
    37    18    19 1   
    38    18    52 1   
    39    19    53 1   
    40    20    21 1   
    41    20    29 2   
    42    21    22 1   
    43    21    26 1   
    44    21    54 1   
    45    22    23 1   
    46    22    28 1   
    47    22    55 1   
    48    23    24 2   
    49    23    25 1   
    50    25    27 1   
    51    25    56 1   
    52    26    57 1   
    53    27    58 1   
    54    27    59 1   
    55    28    60 1   
    56    30    61 1   
    57    30    62 1   
    58    31    32 1   
    59    31    33 1   
    60    31    34 1   
    61    35    36 ar  
    62    35    40 ar  
    63    36    37 ar  
    64    36    63 1   
    65    37    38 ar  
    66    37    41 1   
    67    38    39 ar  
    68    38    64 1   
    69    39    40 ar  
    70    39    65 1   
    71    40    66 1   
@<TRIPOS>SUBSTRUCTURE
     1 50X         1 TEMP              0 ****  ****    0 ROOT
