@<TRIPOS>MOLECULE
50X
   67    71     1     0     0
SMALL
bcc


@<TRIPOS>ATOM
      1 N1          -3.2760    -0.7950     0.8180 n          1 50X      -0.466800
      2 C2          -4.3710    -0.5240     1.7500 c5         1 50X       0.158000
      3 C3          -5.1060    -1.8690     1.8180 c5         1 50X      -0.090400
      4 C4          -4.0130    -2.8900     1.5310 c5         1 50X      -0.096400
      5 C5          -3.2050    -2.2050     0.4390 c5         1 50X       0.101000
      6 C6           3.7960     1.0210     1.2590 ca         1 50X      -0.065200
      7 C7           4.3620     2.2980     1.1340 ca         1 50X       0.062400
      8 C8           3.6510     3.4260     1.5440 ca         1 50X      -0.054000
      9 C9           2.3860     3.2330     2.0610 ca         1 50X      -0.150000
     10 C10          1.8290     1.9480     2.1710 ca         1 50X      -0.096000
     11 C11          2.5180     0.8190     1.7740 ca         1 50X      -0.132000
     12 N12          4.7430     0.1510     0.7770 na         1 50X      -0.129300
     13 C13          5.7900     0.9290     0.3860 cc         1 50X       0.304800
     14 N14          5.6150     2.1990     0.5850 nd         1 50X      -0.514100
     15 C15          2.3640    -2.0210    -2.5470 cc         1 50X      -0.094400
     16 S16          2.3660    -1.0930    -1.0970 ss         1 50X      -0.017800
     17 C17          3.9240    -1.6810    -0.6520 cc         1 50X      -0.123400
     18 C18          4.4060    -2.5480    -1.5840 cd         1 50X      -0.116000
     19 C19          3.5070    -2.7490    -2.6680 cd         1 50X      -0.150000
     20 C20         -2.3480     0.1390     0.5880 c          1 50X       0.644100
     21 C21         -1.2210    -0.1720    -0.4010 c3         1 50X       0.038100
     22 C22         -1.7960    -0.2940    -1.8290 c3         1 50X       0.058100
     23 C23         -0.6220    -0.4240    -2.8030 c          1 50X       0.646100
     24 O24         -0.2590     0.5220    -3.4790 o          1 50X      -0.570100
     25 N25         -0.0270    -1.6290    -2.8060 ns         1 50X      -0.580900
     26 O26         -0.2850     0.8570    -0.3560 oh         1 50X      -0.584800
     27 C27          1.2080    -1.9170    -3.4950 c3         1 50X       0.170300
     28 O28         -2.5980     0.7950    -2.1560 oh         1 50X      -0.572800
     29 O29         -2.3660     1.2390     1.1260 o          1 50X      -0.595100
     30 C30          4.5590    -1.2850     0.6410 c3         1 50X       0.126600
     31 C31          7.0520     0.3740    -0.1970 c3         1 50X       0.678600
     32 F32          7.6800    -0.4300     0.6690 f          1 50X      -0.221300
     33 F33          6.8100    -0.3470    -1.2960 f          1 50X      -0.221300
     34 F34          7.8850     1.3510    -0.5240 f          1 50X      -0.221300
     35 C35         -5.2620     0.6090     1.3120 ca         1 50X      -0.080300
     36 C36         -5.7770     1.4760     2.2670 ca         1 50X      -0.104000
     37 C37         -6.6510     2.4800     1.8820 ca         1 50X       0.028400
     38 C38         -7.0210     2.6510     0.5580 ca         1 50X      -0.114000
     39 C39         -6.4970     1.7830    -0.3910 ca         1 50X      -0.119000
     40 C40         -5.6270     0.7690    -0.0210 ca         1 50X      -0.103000
     41 CL41        -7.2830     3.5560     3.0890 cl         1 50X      -0.115400
     42 H2          -3.9560    -0.2850     2.7340 h1         1 50X       0.067700
     43 H3          -5.5920    -2.0060     2.7830 hc         1 50X       0.063200
     44 H3A         -5.8780    -1.9180     1.0460 hc         1 50X       0.063200
     45 H4          -3.3920    -3.0500     2.4140 hc         1 50X       0.059700
     46 H4A         -4.4020    -3.8550     1.2080 hc         1 50X       0.059700
     47 H5          -3.6630    -2.3750    -0.5390 h1         1 50X       0.046700
     48 H5A         -2.1740    -2.5560     0.3950 h1         1 50X       0.046700
     49 H9           1.8060     4.0880     2.3850 ha         1 50X       0.137000
     50 H10          0.8300     1.8390     2.5730 ha         1 50X       0.135000
     51 H11          2.0700    -0.1620     1.8620 ha         1 50X       0.135000
     52 H18          5.3640    -3.0430    -1.4950 ha         1 50X       0.155000
     53 H19          3.7070    -3.4050    -3.5050 ha         1 50X       0.154000
     54 H21         -0.7450    -1.1200    -0.1190 h1         1 50X       0.063700
     55 H22         -2.4210    -1.1890    -1.8990 h1         1 50X       0.078700
     56 HN25        -0.4280    -2.3720    -2.2540 hn         1 50X       0.309500
     57 HO26        -0.6600     1.5460     0.2140 ho         1 50X       0.444000
     58 H27          1.3800    -1.1260    -4.2250 h1         1 50X       0.075200
     59 H27A         1.1130    -2.8500    -4.0520 h1         1 50X       0.075200
     60 HO28        -2.0240     1.5560    -2.3120 ho         1 50X       0.440000
     61 H30          5.5160    -1.7930     0.7470 h1         1 50X       0.074200
     62 H30A         3.9610    -1.6110     1.4930 h1         1 50X       0.074200
     63 H36         -5.4920     1.3710     3.3070 ha         1 50X       0.145000
     64 H38         -7.6970     3.4440     0.2700 ha         1 50X       0.148000
     65 H39         -6.7730     1.9050    -1.4300 ha         1 50X       0.138000
     66 H40         -5.2270     0.1060    -0.7780 ha         1 50X       0.141000
     67 H8           4.0800     4.4160     1.4520 ha         1 50X       0.151000
@<TRIPOS>BOND
     1     1     2 1   
     2     1     5 1   
     3     1    20 1   
     4     2     3 1   
     5     2    35 1   
     6     2    42 1   
     7     3     4 1   
     8     3    43 1   
     9     3    44 1   
    10     4     5 1   
    11     4    45 1   
    12     4    46 1   
    13     5    47 1   
    14     5    48 1   
    15     6     7 ar  
    16     6    11 ar  
    17     6    12 1   
    18     7     8 ar  
    19     7    14 1   
    20     8     9 ar  
    21     8    67 1   
    22     9    10 ar  
    23     9    49 1   
    24    10    11 ar  
    25    10    50 1   
    26    11    51 1   
    27    12    13 1   
    28    12    30 1   
    29    13    14 2   
    30    13    31 1   
    31    15    16 1   
    32    15    19 2   
    33    15    27 1   
    34    16    17 1   
    35    17    18 2   
    36    17    30 1   
    37    18    19 1   
    38    18    52 1   
    39    19    53 1   
    40    20    21 1   
    41    20    29 2   
    42    21    22 1   
    43    21    26 1   
    44    21    54 1   
    45    22    23 1   
    46    22    28 1   
    47    22    55 1   
    48    23    24 2   
    49    23    25 1   
    50    25    27 1   
    51    25    56 1   
    52    26    57 1   
    53    27    58 1   
    54    27    59 1   
    55    28    60 1   
    56    30    61 1   
    57    30    62 1   
    58    31    32 1   
    59    31    33 1   
    60    31    34 1   
    61    35    36 ar  
    62    35    40 ar  
    63    36    37 ar  
    64    36    63 1   
    65    37    38 ar  
    66    37    41 1   
    67    38    39 ar  
    68    38    64 1   
    69    39    40 ar  
    70    39    65 1   
    71    40    66 1   
@<TRIPOS>SUBSTRUCTURE
     1 50X         1 TEMP              0 ****  ****    0 ROOT
