@<TRIPOS>MOLECULE
50Y
   60    64     1     0     0
SMALL
No Charge or Current Charge


@<TRIPOS>ATOM
      1 C17          0.1050    -2.0180     2.0920 c3         1 50Y      -0.116100
      2 C16          0.7550    -1.8790     0.7010 c3         1 50Y       0.074600
      3 C15          3.6330    -0.1910     0.6900 c          1 50Y       0.631300
      4 C20          3.4070    -1.8310    -1.2180 cx         1 50Y       0.034200
      5 C21          5.2560    -2.0780     0.4510 cx         1 50Y       0.034200
      6 C22          4.0950    -2.7110    -2.2420 cx         1 50Y      -0.124650
      7 C23          2.8720    -3.2140    -1.5170 cx         1 50Y      -0.124650
      8 C24          5.3200    -3.4990     0.9650 cx         1 50Y      -0.124650
      9 C11         -1.4960     4.7350     0.3380 cc         1 50Y       0.382700
     10 C27         -5.5910    -0.1690    -1.0210 c3         1 50Y      -0.098400
     11 C1           0.4550     1.7000     0.4220 ca         1 50Y      -0.191800
     12 C2          -0.0330     0.4320     0.1690 ca         1 50Y       0.426500
     13 N3          -1.3310     0.1960    -0.1520 nb         1 50Y      -0.798000
     14 C4          -2.1510     1.2650    -0.2110 ca         1 50Y       0.701900
     15 C5          -1.7170     2.5940     0.0440 ca         1 50Y      -0.068600
     16 C6          -0.4080     2.7980     0.3590 ca         1 50Y       0.019800
     17 C7           1.8580     1.6060     0.6900 cc         1 50Y      -0.163200
     18 C8           2.2120     0.2710     0.5360 cd         1 50Y      -0.154300
     19 N9           1.0160    -0.4760     0.3140 na         1 50Y      -0.156400
     20 N10         -2.4300     3.8080     0.0250 nd         1 50Y      -0.554100
     21 N12         -0.2480     4.1390     0.5450 na         1 50Y      -0.159600
     22 C14          1.0230     4.7800     0.9050 c3         1 50Y       0.065900
     23 O18          4.4620     0.4860     1.2890 o          1 50Y      -0.560100
     24 N19          3.9990    -1.4210     0.0750 n          1 50Y      -0.349800
     25 C25          5.6450    -2.3530     1.8870 cx         1 50Y      -0.124650
     26 C26         -4.1000    -0.3230    -0.6750 c3         1 50Y       0.223800
     27 C28         -6.2960    -1.5270    -1.1840 c3         1 50Y       0.162600
     28 O29         -7.6720    -1.2700    -1.5030 os         1 50Y      -0.454000
     29 C30         -8.4710    -2.4500    -1.6870 c3         1 50Y       0.147900
     30 H1          -0.8770    -1.5320     2.1200 hc         1 50Y       0.048700
     31 H2          -0.0300    -3.0760     2.3430 hc         1 50Y       0.048700
     32 H3           0.7410    -1.5610     2.8600 hc         1 50Y       0.048700
     33 H4           1.6980    -2.4330     0.7270 h1         1 50Y       0.065700
     34 H5           0.1100    -2.3420    -0.0560 h1         1 50Y       0.065700
     35 H6           2.8620    -0.9800    -1.6280 h1         1 50Y       0.076700
     36 H7           6.0400    -1.7360    -0.2250 h1         1 50Y       0.076700
     37 H8           3.9840    -2.4400    -3.2890 hc         1 50Y       0.078075
     38 H9           5.0460    -3.1750    -1.9980 hc         1 50Y       0.078075
     39 H10          3.0100    -3.9940    -0.7740 hc         1 50Y       0.078075
     40 H11          1.9420    -3.2820    -2.0750 hc         1 50Y       0.078075
     41 H12          4.3880    -4.0280     1.1430 hc         1 50Y       0.078075
     42 H13          6.1400    -4.1220     0.6170 hc         1 50Y       0.078075
     43 H14         -1.6520     5.8030     0.4260 h5         1 50Y       0.062800
     44 H15         -6.0920     0.4010    -0.2300 hc         1 50Y       0.059700
     45 H16         -5.6910     0.3990    -1.9540 hc         1 50Y       0.059700
     46 H17          2.5530     2.4160     0.9020 ha         1 50Y       0.203000
     47 H18         -4.0500     1.8230    -0.5330 hn         1 50Y       0.504000
     48 H19          1.3890     4.3660     1.8530 h1         1 50Y       0.054367
     49 H20          1.7630     4.6010     0.1150 h1         1 50Y       0.054367
     50 H21          0.8750     5.8610     1.0200 h1         1 50Y       0.054367
     51 H22          6.6850    -2.2010     2.1630 hc         1 50Y       0.078075
     52 H23          4.9260    -2.1130     2.6660 hc         1 50Y       0.078075
     53 H24         -4.0030    -0.8900     0.2630 h1         1 50Y       0.048700
     54 H25         -3.6020    -0.8980    -1.4690 h1         1 50Y       0.048700
     55 H26         -5.8120    -2.1000    -1.9860 h1         1 50Y       0.021200
     56 H27         -6.2150    -2.0980    -0.2490 h1         1 50Y       0.021200
     57 H28         -9.5070    -2.1770    -1.9280 h1         1 50Y       0.028033
     58 H29         -8.0800    -3.0620    -2.5110 h1         1 50Y       0.028033
     59 H30         -8.4820    -3.0610    -0.7750 h1         1 50Y       0.028033
     60 N13         -3.4630     0.9920    -0.5320 nu         1 50Y      -0.913100
@<TRIPOS>BOND
     1     1     2 1   
     2     1    30 1   
     3     1    31 1   
     4     1    32 1   
     5     2    19 1   
     6     2    33 1   
     7     2    34 1   
     8     3    18 1   
     9     3    23 2   
    10     3    24 1   
    11     4     6 1   
    12     4     7 1   
    13     4    24 1   
    14     4    35 1   
    15     5     8 1   
    16     5    24 1   
    17     5    25 1   
    18     5    36 1   
    19     6     7 1   
    20     6    37 1   
    21     6    38 1   
    22     7    39 1   
    23     7    40 1   
    24     8    25 1   
    25     8    41 1   
    26     8    42 1   
    27     9    20 2   
    28     9    21 1   
    29     9    43 1   
    30    10    26 1   
    31    10    27 1   
    32    10    44 1   
    33    10    45 1   
    34    11    12 ar  
    35    11    16 ar  
    36    11    17 1   
    37    12    13 ar  
    38    12    19 1   
    39    13    14 ar  
    40    14    15 ar  
    41    14    60 1   
    42    15    16 ar  
    43    15    20 1   
    44    16    21 1   
    45    17    18 2   
    46    17    46 1   
    47    18    19 1   
    48    21    22 1   
    49    22    48 1   
    50    22    49 1   
    51    22    50 1   
    52    25    51 1   
    53    25    52 1   
    54    26    53 1   
    55    26    54 1   
    56    26    60 1   
    57    27    28 1   
    58    27    55 1   
    59    27    56 1   
    60    28    29 1   
    61    29    57 1   
    62    29    58 1   
    63    29    59 1   
    64    47    60 1   
@<TRIPOS>SUBSTRUCTURE
     1 50Y         1 TEMP              0 ****  ****    0 ROOT
