@<TRIPOS>MOLECULE
50Y
   60    64     1     0     0
SMALL
abcg2


@<TRIPOS>ATOM
      1 C17          0.1240    -2.1130     2.3600 c3         1 50Y      -0.116100
      2 C16          0.5560    -1.9130     0.9170 c3         1 50Y       0.074600
      3 C15          3.3140    -0.6350     1.3080 c          1 50Y       0.631300
      4 C20          3.7310    -1.0770    -1.0200 cx         1 50Y       0.034200
      5 C21          5.0450    -2.1910     0.7410 cx         1 50Y       0.034200
      6 C22          3.9790    -2.0560    -2.1200 cx         1 50Y      -0.124650
      7 C23          2.5950    -1.5470    -1.8740 cx         1 50Y      -0.124650
      8 C24          5.0960    -3.6700     0.5020 cx         1 50Y      -0.124650
      9 C11         -1.3090     4.5860    -0.4470 cc         1 50Y       0.382700
     10 C27         -5.4780    -0.3070    -0.6940 c3         1 50Y      -0.098400
     11 C1           0.6040     1.6700     0.3520 ca         1 50Y      -0.191800
     12 C2          -0.0320     0.4200     0.3000 ca         1 50Y       0.426500
     13 N3          -1.3090     0.1440     0.0040 nb         1 50Y      -0.798000
     14 C4          -2.0930     1.1640    -0.2890 ca         1 50Y       0.701900
     15 C5          -1.5820     2.4940    -0.2980 ca         1 50Y      -0.068600
     16 C6          -0.2510     2.7350     0.0180 ca         1 50Y       0.019800
     17 C7           1.9470     1.4460     0.7550 cc         1 50Y      -0.163200
     18 C8           2.0840     0.0930     0.9010 cd         1 50Y      -0.154300
     19 N9           0.8910    -0.5330     0.6210 na         1 50Y      -0.156400
     20 N10         -2.2240     3.6720    -0.5870 nd         1 50Y      -0.554100
     21 N12         -0.0960     4.0820    -0.0830 na         1 50Y      -0.159600
     22 C14          1.1190     4.8250     0.1550 c3         1 50Y       0.065900
     23 O18          3.7800    -0.4740     2.4210 o          1 50Y      -0.560100
     24 N19          3.8690    -1.4580     0.3680 n          1 50Y      -0.349800
     25 C25          4.9810    -3.1360     1.8930 cx         1 50Y      -0.124650
     26 C26         -3.9600    -0.3590    -0.7700 c3         1 50Y       0.223800
     27 C28         -6.0900    -1.6670    -0.9650 c3         1 50Y       0.162600
     28 O29         -7.4890    -1.5710    -0.8630 os         1 50Y      -0.454000
     29 C30         -8.1350    -2.7910    -1.1170 c3         1 50Y       0.147900
     30 H1          -0.7550    -1.5140     2.5960 hc         1 50Y       0.048700
     31 H2          -0.1260    -3.1600     2.5310 hc         1 50Y       0.048700
     32 H3           0.9200    -1.8410     3.0540 hc         1 50Y       0.048700
     33 H4           1.4210    -2.5350     0.6930 h1         1 50Y       0.065700
     34 H5          -0.2390    -2.2110     0.2350 h1         1 50Y       0.065700
     35 H6           4.0760    -0.0680    -1.2260 h1         1 50Y       0.076700
     36 H7           5.9780    -1.6500     0.6080 h1         1 50Y       0.076700
     37 H8           4.5300    -1.6950    -2.9790 hc         1 50Y       0.078075
     38 H9           4.1830    -3.0860    -1.8650 hc         1 50Y       0.078075
     39 H10          1.8890    -2.2440    -1.4450 hc         1 50Y       0.078075
     40 H11          2.1580    -0.8320    -2.5580 hc         1 50Y       0.078075
     41 H12          4.2160    -4.1450     0.0890 hc         1 50Y       0.078075
     42 H13          6.0350    -4.0920     0.1670 hc         1 50Y       0.078075
     43 H14         -1.4510     5.6470    -0.5940 h5         1 50Y       0.062800
     44 H15         -5.7780     0.0440     0.2970 hc         1 50Y       0.059700
     45 H16         -5.8610     0.4140    -1.4240 hc         1 50Y       0.059700
     46 H17          2.7330     2.1750     0.8760 ha         1 50Y       0.203000
     47 H18         -3.8980     1.7310    -0.9690 hn         1 50Y       0.504000
     48 H19          1.4430     4.7110     1.1880 h1         1 50Y       0.054367
     49 H20          1.9130     4.4820    -0.5070 h1         1 50Y       0.054367
     50 H21          0.9360     5.8790    -0.0380 h1         1 50Y       0.054367
     51 H22          5.8380    -3.1760     2.5520 hc         1 50Y       0.078075
     52 H23          4.0300    -3.2640     2.3930 hc         1 50Y       0.078075
     53 H24         -3.5690    -1.0320    -0.0060 h1         1 50Y       0.048700
     54 H25         -3.6460    -0.7720    -1.7380 h1         1 50Y       0.048700
     55 H26         -5.7990    -2.0190    -1.9660 h1         1 50Y       0.021200
     56 H27         -5.6980    -2.4050    -0.2480 h1         1 50Y       0.021200
     57 H28         -9.2080    -2.6350    -1.0080 h1         1 50Y       0.028033
     58 H29         -7.9410    -3.1570    -2.1320 h1         1 50Y       0.028033
     59 H30         -7.8270    -3.5760    -0.4150 h1         1 50Y       0.028033
     60 N13         -3.4040     0.9560    -0.5560 nu         1 50Y      -0.913100
@<TRIPOS>BOND
     1     1     2 1   
     2     1    30 1   
     3     1    31 1   
     4     1    32 1   
     5     2    19 1   
     6     2    33 1   
     7     2    34 1   
     8     3    18 1   
     9     3    23 2   
    10     3    24 1   
    11     4     6 1   
    12     4     7 1   
    13     4    24 1   
    14     4    35 1   
    15     5     8 1   
    16     5    24 1   
    17     5    25 1   
    18     5    36 1   
    19     6     7 1   
    20     6    37 1   
    21     6    38 1   
    22     7    39 1   
    23     7    40 1   
    24     8    25 1   
    25     8    41 1   
    26     8    42 1   
    27     9    20 2   
    28     9    21 1   
    29     9    43 1   
    30    10    26 1   
    31    10    27 1   
    32    10    44 1   
    33    10    45 1   
    34    11    12 ar  
    35    11    16 ar  
    36    11    17 1   
    37    12    13 ar  
    38    12    19 1   
    39    13    14 ar  
    40    14    15 ar  
    41    14    60 1   
    42    15    16 ar  
    43    15    20 1   
    44    16    21 1   
    45    17    18 2   
    46    17    46 1   
    47    18    19 1   
    48    21    22 1   
    49    22    48 1   
    50    22    49 1   
    51    22    50 1   
    52    25    51 1   
    53    25    52 1   
    54    26    53 1   
    55    26    54 1   
    56    26    60 1   
    57    27    28 1   
    58    27    55 1   
    59    27    56 1   
    60    28    29 1   
    61    29    57 1   
    62    29    58 1   
    63    29    59 1   
    64    47    60 1   
@<TRIPOS>SUBSTRUCTURE
     1 50Y         1 TEMP              0 ****  ****    0 ROOT
