@<TRIPOS>MOLECULE
50Z
   30    31     1     0     0
SMALL
bcc


@<TRIPOS>ATOM
      1 N1           2.0390    -1.1370     0.2110 nc         1 50Z      -0.830000
      2 C2           0.8130    -1.6060    -0.1100 cc         1 50Z       0.760200
      3 N3           0.7010    -2.8670    -0.5160 nv         1 50Z      -0.942500
      4 C4          -0.2620    -0.7020     0.0160 cd         1 50Z      -0.387000
      5 C5          -1.6060    -1.0190    -0.2930 c          1 50Z       0.543200
      6 C6          -2.6610     0.0320    -0.1320 ca         1 50Z       0.359800
      7 C8          -3.1770     2.1760     0.4720 ca         1 50Z       0.402200
      8 N8          -2.2740     1.2210     0.3120 nb         1 50Z      -0.667000
      9 C9          -4.5230     1.9890     0.1950 ca         1 50Z      -0.233300
     10 C10         -4.9310     0.7480    -0.2720 ca         1 50Z      -0.104000
     11 C11         -3.9870    -0.2520    -0.4410 ca         1 50Z      -0.191300
     12 O12         -1.9520    -2.1410    -0.6940 o          1 50Z      -0.619100
     13 S13          0.3790     0.8360     0.5950 ss         1 50Z      -0.159300
     14 C14          1.9680     0.1140     0.5980 cd         1 50Z       0.742300
     15 N15          3.0290     0.8080     0.9940 nu         1 50Z      -0.852900
     16 C16          4.3790     0.2740     0.9690 c3         1 50Z       0.256000
     17 C17          5.0240     0.4190    -0.3770 c2         1 50Z      -0.195200
     18 C18          6.1600     1.0720    -0.5860 c2         1 50Z      -0.207000
     19 HN3          1.5250    -3.4300    -0.6330 hn         1 50Z       0.460300
     20 HN3A        -0.2000    -3.2230    -0.7890 hn         1 50Z       0.460300
     21 H8          -2.8150     3.1300     0.8380 h4         1 50Z       0.019100
     22 H9          -5.2280     2.7950     0.3420 ha         1 50Z       0.141000
     23 H10         -5.9720     0.5610    -0.5000 ha         1 50Z       0.139000
     24 H11         -4.2710    -1.2300    -0.8020 ha         1 50Z       0.164000
     25 HN15         2.9250     1.7940     1.1730 hn         1 50Z       0.446800
     26 H16          4.9550     0.8000     1.7300 h1         1 50Z       0.065200
     27 H16A         4.3350    -0.7760     1.2590 h1         1 50Z       0.065200
     28 H17          4.5080    -0.0540    -1.2070 ha         1 50Z       0.138000
     29 H18          6.5980     1.1450    -1.5720 ha         1 50Z       0.113000
     30 H18A         6.6970     1.5550     0.2230 ha         1 50Z       0.113000
@<TRIPOS>BOND
     1     1     2 1   
     2     1    14 2   
     3     2     3 1   
     4     2     4 2   
     5     3    19 1   
     6     3    20 1   
     7     4     5 1   
     8     4    13 1   
     9     5     6 1   
    10     5    12 2   
    11     6     8 ar  
    12     6    11 ar  
    13     7     8 ar  
    14     7     9 ar  
    15     7    21 1   
    16     9    10 ar  
    17     9    22 1   
    18    10    11 ar  
    19    10    23 1   
    20    11    24 1   
    21    13    14 1   
    22    14    15 1   
    23    15    16 1   
    24    15    25 1   
    25    16    17 1   
    26    16    26 1   
    27    16    27 1   
    28    17    18 2   
    29    17    28 1   
    30    18    29 1   
    31    18    30 1   
@<TRIPOS>SUBSTRUCTURE
     1 50Z         1 TEMP              0 ****  ****    0 ROOT
