@<TRIPOS>MOLECULE
50Z
   30    31     1     0     0
SMALL
No Charge or Current Charge


@<TRIPOS>ATOM
      1 N1           1.9720    -1.4510     0.2560 nc         1 50Z      -0.830000
      2 C2           0.6800    -1.7460     0.4380 cc         1 50Z       0.694900
      3 N3           0.5320    -3.0110     0.7490 nv         1 50Z      -1.052900
      4 C4          -0.2700    -0.7910     0.2590 cd         1 50Z      -0.466600
      5 C5          -1.7380    -1.0460     0.3060 c          1 50Z       0.543200
      6 C6          -2.7390     0.1170     0.1510 ca         1 50Z       0.294500
      7 C8          -3.3440     2.3600     0.4610 ca         1 50Z       0.336900
      8 N8          -2.4280     1.3740     0.5950 nb         1 50Z      -0.667000
      9 C9          -4.6110     2.1520    -0.1050 ca         1 50Z      -0.150000
     10 C10         -4.9550     0.8680    -0.5530 ca         1 50Z      -0.086000
     11 C11         -4.0050    -0.1580    -0.4170 ca         1 50Z      -0.108000
     12 O12         -2.1480    -2.1970     0.4510 o          1 50Z      -0.619100
     13 S13          0.5340     0.7200    -0.1590 ss         1 50Z      -0.014400
     14 C14          2.0470    -0.1830    -0.0670 cd         1 50Z       0.742300
     15 N15          3.2680     0.3560    -0.3100 nu         1 50Z      -0.908100
     16 C16          4.5650    -0.2970    -0.1510 c3         1 50Z       0.256000
     17 C17          5.6310     0.7240    -0.4670 c2         1 50Z      -0.245200
     18 C18          5.9330     1.8020     0.2790 c2         1 50Z      -0.307000
     19 HN3          1.2960    -3.5970     0.4420 hn         1 50Z       0.515500
     20 HN3A        -0.4090    -3.3640     0.6040 hn         1 50Z       0.515500
     21 H8          -3.0530     3.3460     0.8220 h4         1 50Z       0.019100
     22 H9          -5.3130     2.9780    -0.1890 ha         1 50Z       0.123000
     23 H10         -5.9310     0.6720    -0.9930 ha         1 50Z       0.121000
     24 H11         -4.2440    -1.1640    -0.7540 ha         1 50Z       0.146000
     25 HN15         3.2620     1.3530    -0.4970 hn         1 50Z       0.502000
     26 H16          4.6900    -0.6650     0.8780 h1         1 50Z       0.065200
     27 H16A         4.6500    -1.1570    -0.8310 h1         1 50Z       0.065200
     28 H17          6.1760     0.5170    -1.3910 ha         1 50Z       0.188000
     29 H18          6.7220     2.4970    -0.0140 ha         1 50Z       0.163000
     30 H18A         5.4050     2.0240     1.2080 ha         1 50Z       0.163000
@<TRIPOS>BOND
     1     1     2 1   
     2     1    14 2   
     3     2     3 1   
     4     2     4 2   
     5     3    19 1   
     6     3    20 1   
     7     4     5 1   
     8     4    13 1   
     9     5     6 1   
    10     5    12 2   
    11     6     8 ar  
    12     6    11 ar  
    13     7     8 ar  
    14     7     9 ar  
    15     7    21 1   
    16     9    10 ar  
    17     9    22 1   
    18    10    11 ar  
    19    10    23 1   
    20    11    24 1   
    21    13    14 1   
    22    14    15 1   
    23    15    16 1   
    24    15    25 1   
    25    16    17 1   
    26    16    26 1   
    27    16    27 1   
    28    17    18 2   
    29    17    28 1   
    30    18    29 1   
    31    18    30 1   
@<TRIPOS>SUBSTRUCTURE
     1 50Z         1 TEMP              0 ****  ****    0 ROOT
