@<TRIPOS>MOLECULE
510
   50    51     1     0     0
SMALL
abcg2


@<TRIPOS>ATOM
      1 C1          -1.2380    -0.3110    -0.3990 c6         1 510      -0.011700
      2 C2          -2.5760    -0.7500    -1.0050 c6         1 510       0.186300
      3 C3          -3.7400    -0.3470    -0.1060 c6         1 510       0.130300
      4 C4          -3.6560     1.1150     0.3270 c6         1 510       0.118300
      5 C5          -2.3080     1.3310     1.0070 c6         1 510       0.091300
      6 C6          -2.0750     2.7790     1.3950 c3         1 510       0.171600
      7 O2          -2.6370    -0.1500    -2.2730 oh         1 510      -0.696000
      8 O3          -4.9110    -0.6480    -0.8190 oh         1 510      -0.651000
      9 O4          -3.8690     1.9620    -0.7740 oh         1 510      -0.689000
     10 O6          -0.9720     2.9450     2.2490 oh         1 510      -0.728000
     11 O5          -1.2200     0.9480     0.1620 os         1 510      -0.432000
     12 SBN         -0.5800    -1.5630     0.7950 s6         1 510       1.137100
     13 OAN         -1.1770    -1.3450     2.1040 o          1 510      -0.520500
     14 OAO         -0.6760    -2.8680     0.1530 o          1 510      -0.520500
     15 N            1.0240    -1.2600     0.9350 n3         1 510      -0.742500
     16 CD1          1.5580    -0.0580     1.5820 c5         1 510       0.211800
     17 CG           2.5760     0.4270     0.5670 c5         1 510       0.185300
     18 OD2          1.9000     1.0440    -0.5500 os         1 510      -0.595700
     19 SBM          1.7420     2.6340    -0.6240 s6         1 510       1.417800
     20 OAL          0.8780     2.8360    -1.7540 o          1 510      -0.538500
     21 OAM          1.4020     3.1330     0.6960 o          1 510      -0.538500
     22 NAF          3.2000     3.2530    -0.9720 n8         1 510      -1.055100
     23 CB           3.1620    -0.8680     0.0400 c5         1 510      -0.082400
     24 CA           1.9360    -1.7950    -0.0650 c5         1 510       0.178500
     25 C            2.3160    -3.2290     0.2430 c          1 510       0.592100
     26 O            2.2040    -3.7540     1.3180 o          1 510      -0.452000
     27 OAS          2.8420    -3.8000    -0.8260 os         1 510      -0.444100
     28 CAA          3.3240    -5.1390    -0.6930 c3         1 510       0.153900
     29 H1          -0.4910    -0.3250    -1.2000 h2         1 510       0.124700
     30 H2          -2.5800    -1.8430    -1.1040 h1         1 510       0.067700
     31 H3          -3.6710    -0.9490     0.8120 h1         1 510       0.052700
     32 H4          -4.4230     1.2770     1.0990 h1         1 510       0.034700
     33 H5          -2.3030     0.7300     1.9220 h1         1 510       0.081700
     34 H6          -1.9880     3.3940     0.4930 h1         1 510       0.048700
     35 H7          -2.9620     3.1230     1.9350 h1         1 510       0.048700
     36 H8          -3.5660    -0.0380    -2.5060 ho         1 510       0.532000
     37 H9          -5.6730    -0.3130    -0.3350 ho         1 510       0.456000
     38 H10         -4.2650     2.7800    -0.4610 ho         1 510       0.505000
     39 H11         -0.1710     2.9910     1.7110 ho         1 510       0.540000
     40 H14          0.7860     0.6690     1.8150 h1         1 510       0.091700
     41 H15          3.3320     1.0880     0.9950 h1         1 510       0.062700
     42 H16          3.6020     2.9470    -1.8500 hn         1 510       0.490000
     43 H17          3.8700     3.2650    -0.2120 hn         1 510       0.490000
     44 H18          3.6810    -0.7560    -0.9100 hc         1 510       0.075700
     45 H19          3.8780    -1.2410     0.7750 hc         1 510       0.075700
     46 H20          1.5180    -1.7410    -1.0750 h1         1 510       0.095700
     47 H21          3.6940    -5.4210    -1.6730 h1         1 510       0.051367
     48 H22          4.1350    -5.1980     0.0320 h1         1 510       0.051367
     49 H23          2.5250    -5.8190    -0.3970 h1         1 510       0.051367
     50 H12          2.0680    -0.3200     2.5110 h1         1 510       0.091700
@<TRIPOS>BOND
     1     1     2 1   
     2     1    11 1   
     3     1    12 1   
     4     1    29 1   
     5     2     3 1   
     6     2     7 1   
     7     2    30 1   
     8     3     4 1   
     9     3     8 1   
    10     3    31 1   
    11     4     5 1   
    12     4     9 1   
    13     4    32 1   
    14     5     6 1   
    15     5    11 1   
    16     5    33 1   
    17     6    10 1   
    18     6    34 1   
    19     6    35 1   
    20     7    36 1   
    21     8    37 1   
    22     9    38 1   
    23    10    39 1   
    24    12    13 2   
    25    12    14 2   
    26    12    15 1   
    27    15    16 1   
    28    15    24 1   
    29    16    17 1   
    30    16    40 1   
    31    16    50 1   
    32    17    18 1   
    33    17    23 1   
    34    17    41 1   
    35    18    19 1   
    36    19    20 2   
    37    19    21 2   
    38    19    22 1   
    39    22    42 1   
    40    22    43 1   
    41    23    24 1   
    42    23    44 1   
    43    23    45 1   
    44    24    25 1   
    45    24    46 1   
    46    25    26 2   
    47    25    27 1   
    48    27    28 1   
    49    28    47 1   
    50    28    48 1   
    51    28    49 1   
@<TRIPOS>SUBSTRUCTURE
     1 510         1 TEMP              0 ****  ****    0 ROOT
