@<TRIPOS>MOLECULE
510
   50    51     1     0     0
SMALL
No Charge or Current Charge


@<TRIPOS>ATOM
      1 C1          -1.2720    -0.3420    -0.3960 c6         1 510      -0.011700
      2 C2          -2.6500    -0.7110    -1.0120 c6         1 510       0.186300
      3 C3          -3.7950    -0.4240     0.0260 c6         1 510       0.130300
      4 C4          -3.7420     1.0710     0.4860 c6         1 510       0.118300
      5 C5          -2.3240     1.3540     1.0830 c6         1 510       0.091300
      6 C6          -2.1410     2.8390     1.5340 c3         1 510       0.171600
      7 O2          -2.8600     0.1010    -2.1800 oh         1 510      -0.696000
      8 O3          -5.0890    -0.7240    -0.5270 oh         1 510      -0.651000
      9 O4          -4.0350     1.9350    -0.6400 oh         1 510      -0.689000
     10 O6          -0.8400     3.1020     2.0890 oh         1 510      -0.728000
     11 O5          -1.2860     1.0420     0.1130 os         1 510      -0.432000
     12 SBN         -0.6560    -1.6430     0.7880 s6         1 510       1.137100
     13 OAN         -1.2830    -1.5330     2.1090 o          1 510      -0.520500
     14 OAO         -0.6680    -2.9410     0.1050 o          1 510      -0.520500
     15 N            1.0090    -1.2480     1.0040 n3         1 510      -0.742500
     16 CD1          1.4400     0.0890     1.5020 c5         1 510       0.211800
     17 CG           2.6770     0.4630     0.6190 c5         1 510       0.185300
     18 OD2          2.2830     0.8920    -0.7170 os         1 510      -0.595700
     19 SBM          1.6490     2.3670    -1.0010 s6         1 510       1.417800
     20 OAL          0.8610     2.3650    -2.2300 o          1 510      -0.538500
     21 OAM          1.1840     2.9680     0.2450 o          1 510      -0.538500
     22 NAF          3.0570     3.0700    -1.3390 n8         1 510      -1.055100
     23 CB           3.3170    -0.9320     0.4470 c5         1 510      -0.082400
     24 CA           2.0670    -1.7830     0.0790 c5         1 510       0.178500
     25 C            2.4250    -3.3030     0.2220 c          1 510       0.592100
     26 O            2.1500    -4.0360     1.1660 o          1 510      -0.452000
     27 OAS          3.1140    -3.7280    -0.8910 os         1 510      -0.444100
     28 CAA          3.5310    -5.1050    -0.9480 c3         1 510       0.153900
     29 H1          -0.5100    -0.4290    -1.1790 h2         1 510       0.124700
     30 H2          -2.6600    -1.7770    -1.2860 h1         1 510       0.067700
     31 H3          -3.6320    -1.0600     0.9090 h1         1 510       0.052700
     32 H4          -4.4910     1.2180     1.2790 h1         1 510       0.034700
     33 H5          -2.1880     0.7360     1.9800 h1         1 510       0.081700
     34 H6          -2.3170     3.4930     0.6690 h1         1 510       0.048700
     35 H7          -2.9180     3.0670     2.2770 h1         1 510       0.048700
     36 H8          -3.1770     0.9650    -1.7900 ho         1 510       0.532000
     37 H9          -5.2840     0.0130    -1.1490 ho         1 510       0.456000
     38 H10         -4.4870     2.7380    -0.2870 ho         1 510       0.505000
     39 H11         -0.1880     3.0170     1.3410 ho         1 510       0.540000
     40 H14          0.6540     0.8460     1.4710 h1         1 510       0.091700
     41 H15          3.3480     1.1980     1.0850 h1         1 510       0.062700
     42 H16          3.6370     2.2460    -1.2100 hn         1 510       0.490000
     43 H17          3.1780     3.5980    -0.4810 hn         1 510       0.490000
     44 H18          4.0840    -0.9520    -0.3350 hc         1 510       0.075700
     45 H19          3.7830    -1.2740     1.3790 hc         1 510       0.075700
     46 H20          1.7910    -1.6120    -0.9710 h1         1 510       0.095700
     47 H21          4.0660    -5.3030    -1.8860 h1         1 510       0.051367
     48 H22          4.2050    -5.3460    -0.1160 h1         1 510       0.051367
     49 H23          2.6660    -5.7790    -0.9020 h1         1 510       0.051367
     50 H12          1.7420     0.0140     2.5560 h1         1 510       0.091700
@<TRIPOS>BOND
     1     1     2 1   
     2     1    11 1   
     3     1    12 1   
     4     1    29 1   
     5     2     3 1   
     6     2     7 1   
     7     2    30 1   
     8     3     4 1   
     9     3     8 1   
    10     3    31 1   
    11     4     5 1   
    12     4     9 1   
    13     4    32 1   
    14     5     6 1   
    15     5    11 1   
    16     5    33 1   
    17     6    10 1   
    18     6    34 1   
    19     6    35 1   
    20     7    36 1   
    21     8    37 1   
    22     9    38 1   
    23    10    39 1   
    24    12    13 2   
    25    12    14 2   
    26    12    15 1   
    27    15    16 1   
    28    15    24 1   
    29    16    17 1   
    30    16    40 1   
    31    16    50 1   
    32    17    18 1   
    33    17    23 1   
    34    17    41 1   
    35    18    19 1   
    36    19    20 2   
    37    19    21 2   
    38    19    22 1   
    39    22    42 1   
    40    22    43 1   
    41    23    24 1   
    42    23    44 1   
    43    23    45 1   
    44    24    25 1   
    45    24    46 1   
    46    25    26 2   
    47    25    27 1   
    48    27    28 1   
    49    28    47 1   
    50    28    48 1   
    51    28    49 1   
@<TRIPOS>SUBSTRUCTURE
     1 510         1 TEMP              0 ****  ****    0 ROOT
