@<TRIPOS>MOLECULE
511
   37    39     1     0     0
SMALL
abcg2


@<TRIPOS>ATOM
      1 CL1         19.6750    22.7270    29.0210 cl         1 511      -0.223000
      2 N01         22.2150    20.2020    23.2380 n          1 511      -0.094600
      3 C02         21.2470    19.2300    23.5730 cc         1 511      -0.177400
      4 O01         19.0960    15.6340    21.3420 o          1 511      -0.723000
      5 C03         21.3520    18.1520    22.7630 cd         1 511       0.002600
      6 O02         19.1860    17.8420    20.9580 o          1 511      -0.723000
      7 C04         22.9990    17.6670    20.8200 ca         1 511      -0.073000
      8 C05         24.0720    18.1970    20.1030 ca         1 511       0.094100
      9 C06         24.5800    19.4670    20.4140 ca         1 511      -0.187000
     10 C07         24.0260    20.2300    21.4400 ca         1 511      -0.083000
     11 C08         22.4440    18.4200    21.8470 ca         1 511      -0.035800
     12 C09         22.9570    19.7000    22.1470 ca         1 511      -0.110000
     13 C10         20.5010    16.9310    22.7650 c3         1 511      -0.173200
     14 C11         19.5140    16.7980    21.5690 c          1 511       0.717000
     15 C12         25.6990    17.8700    18.3720 c3         1 511       0.154900
     16 C14         21.6490    21.7150    25.0880 ca         1 511      -0.129600
     17 C15         20.9560    22.9160    25.2380 ca         1 511      -0.060000
     18 C16         20.3380    23.2280    26.4390 ca         1 511      -0.115500
     19 C17         20.4450    22.3380    27.5010 ca         1 511       0.135000
     20 C18         21.1540    21.1500    27.3840 ca         1 511      -0.115500
     21 C19         21.7480    20.8380    26.1690 ca         1 511      -0.060000
     22 H1          20.5370    19.4220    24.3570 h4         1 511       0.213000
     23 H3          22.6200    16.6840    20.5700 ha         1 511       0.149000
     24 H4          25.4100    19.8750    19.8570 ha         1 511       0.101000
     25 H5          24.4210    21.2070    21.6650 ha         1 511       0.128000
     26 H6          19.8940    16.9060    23.6740 hc         1 511       0.036700
     27 H7          21.1250    16.0340    22.7800 hc         1 511       0.036700
     28 H8          25.9340    17.0820    17.6600 h1         1 511       0.031033
     29 H9          25.4710    18.7930    17.8330 h1         1 511       0.031033
     30 H10         26.5550    18.0360    19.0300 h1         1 511       0.031033
     31 H11         20.8940    23.6050    24.4060 ha         1 511       0.135500
     32 H12         19.7840    24.1490    26.5520 ha         1 511       0.128500
     33 H13         21.2400    20.4790    28.2270 ha         1 511       0.128500
     34 H14         22.3040    19.9150    26.0740 ha         1 511       0.135500
     35 O03         24.5680    17.4070    19.1070 os         1 511      -0.351100
     36 O04         23.0160    22.3300    23.2560 o          1 511      -0.582100
     37 C13         22.3470    21.4580    23.7940 c          1 511       0.626700
@<TRIPOS>BOND
     1     1    19 1   
     2     2     3 1   
     3     2    12 1   
     4     2    37 1   
     5     3     5 2   
     6     3    22 1   
     7     4    14 1   
     8     5    11 1   
     9     5    13 1   
    10     6    14 1   
    11     7     8 ar  
    12     7    11 ar  
    13     7    23 1   
    14     8     9 ar  
    15     8    35 1   
    16     9    10 ar  
    17     9    24 1   
    18    10    12 ar  
    19    10    25 1   
    20    11    12 ar  
    21    13    14 1   
    22    13    26 1   
    23    13    27 1   
    24    15    28 1   
    25    15    29 1   
    26    15    30 1   
    27    15    35 1   
    28    16    17 ar  
    29    16    21 ar  
    30    16    37 1   
    31    17    18 ar  
    32    17    31 1   
    33    18    19 ar  
    34    18    32 1   
    35    19    20 ar  
    36    20    21 ar  
    37    20    33 1   
    38    21    34 1   
    39    36    37 2   
@<TRIPOS>SUBSTRUCTURE
     1 511         1 TEMP              0 ****  ****    0 ROOT
