@<TRIPOS>MOLECULE
511
   37    39     1     0     0
SMALL
No Charge or Current Charge


@<TRIPOS>ATOM
      1 Cl1         19.9750    22.7650    29.2290 cl         1 511      -0.223000
      2 N01         22.0740    20.1960    23.1560 n          1 511      -0.094600
      3 C02         21.1090    19.2250    23.4710 cc         1 511      -0.177400
      4 O01         19.7290    16.3830    20.5320 o          1 511      -0.723000
      5 C03         21.2980    18.0950    22.7020 cd         1 511       0.002600
      6 O02         18.3400    17.3740    21.8460 o          1 511      -0.723000
      7 C04         23.0430    17.5760    20.8530 ca         1 511      -0.073000
      8 C05         24.1470    18.1010    20.1500 ca         1 511       0.094100
      9 C06         24.6190    19.4110    20.4430 ca         1 511      -0.187000
     10 C07         23.9890    20.1980    21.4320 ca         1 511      -0.083000
     11 C08         22.4350    18.3740    21.8310 ca         1 511      -0.035800
     12 C09         22.8870    19.6530    22.1090 ca         1 511      -0.110000
     13 C10         20.4690    16.8370    22.7380 c3         1 511      -0.173200
     14 C11         19.4120    16.8300    21.6240 c          1 511       0.717000
     15 C12         25.8680    17.7390    18.4160 c3         1 511       0.154900
     16 C14         21.5390    21.8120    25.0230 ca         1 511      -0.129600
     17 C15         21.0030    23.0850    25.3220 ca         1 511      -0.060000
     18 C16         20.5180    23.3740    26.6100 ca         1 511      -0.115500
     19 C17         20.5780    22.4010    27.6170 ca         1 511       0.135000
     20 C18         21.1320    21.1410    27.3440 ca         1 511      -0.115500
     21 C19         21.6160    20.8480    26.0570 ca         1 511      -0.060000
     22 H1          20.3460    19.4640    24.2030 h4         1 511       0.213000
     23 H3          22.6750    16.5770    20.6390 ha         1 511       0.149000
     24 H4          25.4710    19.8320    19.9170 ha         1 511       0.101000
     25 H5          24.3610    21.1950    21.6580 ha         1 511       0.128000
     26 H6          19.9730    16.8210    23.7160 hc         1 511       0.036700
     27 H7          21.1640    16.0000    22.5990 hc         1 511       0.036700
     28 H8          26.1740    16.9530    17.7150 h1         1 511       0.031033
     29 H9          25.6180    18.6360    17.8350 h1         1 511       0.031033
     30 H10         26.7210    17.9660    19.0670 h1         1 511       0.031033
     31 H11         20.9510    23.8520    24.5500 ha         1 511       0.135500
     32 H12         20.0980    24.3530    26.8270 ha         1 511       0.128500
     33 H13         21.1930    20.3940    28.1310 ha         1 511       0.128500
     34 H14         22.0720    19.8750    25.8790 ha         1 511       0.135500
     35 O03         24.7360    17.3020    19.1910 os         1 511      -0.351100
     36 O04         22.5660    22.4540    22.9720 o          1 511      -0.582100
     37 C13         22.0730    21.5400    23.6290 c          1 511       0.626700
@<TRIPOS>BOND
     1     1    19 1   
     2     2     3 1   
     3     2    12 1   
     4     2    37 1   
     5     3     5 2   
     6     3    22 1   
     7     4    14 1   
     8     5    11 1   
     9     5    13 1   
    10     6    14 1   
    11     7     8 ar  
    12     7    11 ar  
    13     7    23 1   
    14     8     9 ar  
    15     8    35 1   
    16     9    10 ar  
    17     9    24 1   
    18    10    12 ar  
    19    10    25 1   
    20    11    12 ar  
    21    13    14 1   
    22    13    26 1   
    23    13    27 1   
    24    15    28 1   
    25    15    29 1   
    26    15    30 1   
    27    15    35 1   
    28    16    17 ar  
    29    16    21 ar  
    30    16    37 1   
    31    17    18 ar  
    32    17    31 1   
    33    18    19 ar  
    34    18    32 1   
    35    19    20 ar  
    36    20    21 ar  
    37    20    33 1   
    38    21    34 1   
    39    36    37 2   
@<TRIPOS>SUBSTRUCTURE
     1 511         1 TEMP              0 ****  ****    0 ROOT
