@<TRIPOS>MOLECULE
512
   17    17     1     0     0
SMALL
No Charge or Current Charge


@<TRIPOS>ATOM
      1 C1           0.7170    -2.3790     0.5330 cc         1 512      -0.308000
      2 C2          -0.0380    -1.2360     0.5920 cd         1 512      -0.052900
      3 S3           2.3370    -2.0730    -0.0750 ss         1 512       0.185000
      4 C4           1.9930    -0.3590    -0.2550 cc         1 512      -0.250600
      5 C5           0.7000    -0.0750     0.1380 cd         1 512       0.111100
      6 C6           3.0270     0.5750    -0.7710 c          1 512       0.735600
      7 O7           2.7860     1.7650    -0.8960 o          1 512      -0.709500
      8 O8           0.2350     1.2240     0.0710 os         1 512      -0.293100
      9 C9          -1.1000     1.6230     0.4590 c3         1 512       0.026600
     10 C10         -1.3740     3.1500     0.2870 c          1 512       0.733000
     11 O13         -0.4940     3.8880    -0.1420 o          1 512      -0.743500
     12 O14          4.1170     0.1070    -1.0630 o          1 512      -0.709500
     13 O15         -2.4850     3.5630     0.5960 o          1 512      -0.743500
     14 Br19        -1.8240    -1.3500     1.2230 br         1 512      -0.133100
     15 H1           0.4390    -3.3890     0.8030 h4         1 512       0.117000
     16 H91         -1.2730     1.3860     1.5160 h1         1 512       0.018700
     17 H92         -1.8440     1.0960    -0.1520 h1         1 512       0.018700
@<TRIPOS>BOND
     1     1     2 2   
     2     1     3 1   
     3     1    15 1   
     4     2     5 1   
     5     2    14 1   
     6     3     4 1   
     7     4     5 2   
     8     4     6 1   
     9     5     8 1   
    10     6     7 1   
    11     6    12 1   
    12     8     9 1   
    13     9    10 1   
    14     9    16 1   
    15     9    17 1   
    16    10    11 1   
    17    10    13 1   
@<TRIPOS>SUBSTRUCTURE
     1 512         1 TEMP              0 ****  ****    0 ROOT
