@<TRIPOS>MOLECULE
512
   17    17     1     0     0
SMALL
abcg2


@<TRIPOS>ATOM
      1 C1           0.6060    -2.4580     0.2820 cc         1 512      -0.308000
      2 C2          -0.2480    -1.4380     0.0070 cd         1 512      -0.052900
      3 S3           2.2200    -1.8940     0.3220 ss         1 512       0.185000
      4 C4           1.7540    -0.2760    -0.0350 cc         1 512      -0.250600
      5 C5           0.3960    -0.1770    -0.1890 cd         1 512       0.111100
      6 C6           2.8600     0.7380    -0.1490 c          1 512       0.735600
      7 O7           2.5420     1.9120    -0.3980 o          1 512      -0.709500
      8 O8          -0.3030     0.9250    -0.5070 os         1 512      -0.293100
      9 C9          -0.5650     1.7970     0.5900 c3         1 512       0.026600
     10 C10         -1.4310     2.9840     0.1530 c          1 512       0.733000
     11 O13         -1.7550     3.0710    -1.0400 o          1 512      -0.743500
     12 O14          4.0030     0.2710     0.0220 o          1 512      -0.709500
     13 O15         -1.7190     3.7640     1.0840 o          1 512      -0.743500
     14 BR19        -2.1060    -1.6290    -0.1320 br         1 512      -0.133100
     15 H1           0.3660    -3.4940     0.4630 h4         1 512       0.117000
     16 H91          0.3790     2.1680     1.0010 h1         1 512       0.018700
     17 H92         -1.0800     1.2500     1.3900 h1         1 512       0.018700
@<TRIPOS>BOND
     1     1     2 2   
     2     1     3 1   
     3     1    15 1   
     4     2     5 1   
     5     2    14 1   
     6     3     4 1   
     7     4     5 2   
     8     4     6 1   
     9     5     8 1   
    10     6     7 1   
    11     6    12 1   
    12     8     9 1   
    13     9    10 1   
    14     9    16 1   
    15     9    17 1   
    16    10    11 1   
    17    10    13 1   
@<TRIPOS>SUBSTRUCTURE
     1 512         1 TEMP              0 ****  ****    0 ROOT
