@<TRIPOS>MOLECULE
513
   20    21     1     0     0
SMALL
abcg2


@<TRIPOS>ATOM
      1 C4           3.4020    -0.0560     0.2570 cc         1 513      -0.138400
      2 N7           2.0970    -3.0160    -0.7980 n8         1 513      -0.988200
      3 S3           3.0500     1.6200     0.0200 ss         1 513       0.075400
      4 C2           1.3520     1.2880    -0.0280 ca         1 513      -0.157000
      5 C1           1.0990    -0.0840     0.1380 ca         1 513      -0.067800
      6 C5           2.3080    -0.8500     0.3020 cd         1 513      -0.070400
      7 C8           0.3200     2.2060    -0.1940 ca         1 513      -0.075000
      8 C9          -0.9820     1.7480    -0.1940 ca         1 513      -0.083000
      9 C6           2.3350    -2.3380     0.4730 c3         1 513       0.210000
     10 C10         -1.2380     0.3820    -0.0250 ca         1 513      -0.020900
     11 C11         -0.2260    -0.5380     0.1410 ca         1 513      -0.052000
     12 BR1         -3.0330    -0.2100    -0.0240 br         1 513      -0.100100
     13 H8           0.5230     3.2610    -0.3210 ha         1 513       0.126000
     14 H9          -1.7950     2.4500    -0.3220 ha         1 513       0.130000
     15 H11         -0.4410    -1.5900     0.2750 ha         1 513       0.126000
     16 H4           4.4320    -0.3700     0.3550 h4         1 513       0.220000
     17 H61C         1.6210    -2.6150     1.2610 h1         1 513       0.037700
     18 H62C         3.3200    -2.6330     0.8360 h1         1 513       0.037700
     19 H71N         2.1400    -4.0160    -0.6440 hn         1 513       0.394500
     20 H72N         1.1520    -2.8350    -1.1140 hn         1 513       0.394500
@<TRIPOS>BOND
     1     1     3 1   
     2     1     6 2   
     3     1    16 1   
     4     2     9 1   
     5     2    19 1   
     6     2    20 1   
     7     3     4 1   
     8     4     5 ar  
     9     4     7 ar  
    10     5     6 1   
    11     5    11 ar  
    12     6     9 1   
    13     7     8 ar  
    14     7    13 1   
    15     8    10 ar  
    16     8    14 1   
    17     9    17 1   
    18     9    18 1   
    19    10    11 ar  
    20    10    12 1   
    21    11    15 1   
@<TRIPOS>SUBSTRUCTURE
     1 513         1 TEMP              0 ****  ****    0 ROOT
