@<TRIPOS>MOLECULE
513
   20    21     1     0     0
SMALL
No Charge or Current Charge


@<TRIPOS>ATOM
      1 C4           3.4210    -0.1020     0.1720 cc         1 513      -0.138400
      2 N7           2.3850    -3.0730    -0.7760 n8         1 513      -0.988200
      3 S3           3.0860     1.6310    -0.0850 ss         1 513       0.075400
      4 C2           1.3420     1.2710    -0.0470 ca         1 513      -0.157000
      5 C1           1.0530    -0.0650     0.1460 ca         1 513      -0.067800
      6 C5           2.2640    -0.8560     0.2740 cd         1 513      -0.070400
      7 C8           0.3200     2.2230    -0.1960 ca         1 513      -0.075000
      8 C9          -1.0200     1.7920    -0.1460 ca         1 513      -0.083000
      9 C6           2.2830    -2.3490     0.5050 c3         1 513       0.210000
     10 C10         -1.3170     0.4260     0.0490 ca         1 513      -0.020900
     11 C11         -0.2790    -0.5150     0.1960 ca         1 513      -0.052000
     12 Br1         -3.1390    -0.1510     0.1120 br         1 513      -0.100100
     13 H8           0.5570     3.2740    -0.3470 ha         1 513       0.126000
     14 H9          -1.8260     2.5130    -0.2600 ha         1 513       0.130000
     15 H11         -0.5130    -1.5660     0.3440 ha         1 513       0.126000
     16 H4           4.4500    -0.4360     0.2270 h4         1 513       0.220000
     17 H61C         1.3700    -2.6640     1.0290 h1         1 513       0.037700
     18 H62C         3.1440    -2.6150     1.1340 h1         1 513       0.037700
     19 H71N         2.3000    -4.0810    -0.5960 hn         1 513       0.394500
     20 H72N         1.5570    -2.8540    -1.3410 hn         1 513       0.394500
@<TRIPOS>BOND
     1     1     3 1   
     2     1     6 2   
     3     1    16 1   
     4     2     9 1   
     5     2    19 1   
     6     2    20 1   
     7     3     4 1   
     8     4     5 ar  
     9     4     7 ar  
    10     5     6 1   
    11     5    11 ar  
    12     6     9 1   
    13     7     8 ar  
    14     7    13 1   
    15     8    10 ar  
    16     8    14 1   
    17     9    17 1   
    18     9    18 1   
    19    10    11 ar  
    20    10    12 1   
    21    11    15 1   
@<TRIPOS>SUBSTRUCTURE
     1 513         1 TEMP              0 ****  ****    0 ROOT
