@<TRIPOS>MOLECULE
515
   87    91     1     0     0
SMALL
No Charge or Current Charge


@<TRIPOS>ATOM
      1 C1          -1.4830    -0.3340    -5.0220 ca         1 515      -0.042000
      2 C2          -0.4970    -0.3500    -6.0480 ca         1 515       0.068000
      3 C3           0.8560    -0.4950    -5.6970 ca         1 515      -0.113000
      4 C4           1.2370    -0.6760    -4.3640 ca         1 515      -0.072000
      5 C5           0.2770    -0.7030    -3.3370 ca         1 515      -0.139300
      6 C6          -1.0960    -0.5320    -3.6650 ca         1 515      -0.015000
      7 N4          -0.8090    -0.2080    -7.4510 n          1 515      -0.067000
      8 C9           0.7880     0.4610    -1.0880 c3         1 515       0.042700
      9 N1           1.3800     1.5920    -1.8470 ns         1 515      -0.476900
     10 C10          2.6740     1.6550    -2.3140 c          1 515       0.611100
     11 C11          1.3950     0.3400     0.3500 c          1 515       0.607100
     12 N2           1.0530    -0.8030     1.0490 ns         1 515      -0.499900
     13 C12          1.4780    -1.1070     2.4170 c3         1 515       0.100000
     14 C13          0.6330    -0.3590     3.4680 c3         1 515      -0.098400
     15 C14          0.6230    -0.2770     7.4200 c3         1 515       0.162600
     16 C15          1.0490    -0.6890     4.9180 c3         1 515      -0.072400
     17 O1          -0.2280     0.4680     8.3040 os         1 515      -0.297100
     18 O4           3.5080     0.7870    -2.0960 o          1 515      -0.627100
     19 C23          2.9900     2.9000    -3.1330 c3         1 515      -0.176100
     20 C8          -1.7550    -1.0510    -8.0990 c          1 515       0.489100
     21 O8           2.1170     1.1960     0.8510 o          1 515      -0.623100
     22 C7           0.7800    -0.8730    -1.8960 c3         1 515      -0.035100
     23 O5          -2.2620    -0.7330    -9.1830 o          1 515      -0.598100
     24 C24         -2.1760    -2.4320    -7.3550 c          1 515       0.675000
     25 O6          -1.2900    -3.1840    -6.9550 o          1 515      -0.698000
     26 C25          0.4400     0.7420    -9.4440 ca         1 515      -0.103600
     27 C26         -0.1110     0.8700    -8.1330 ca         1 515      -0.009000
     28 C27          0.0280     2.1050    -7.4540 ca         1 515      -0.156000
     29 C28          0.6510     3.2030    -8.0630 ca         1 515      -0.150000
     30 C29          1.1580     3.0860    -9.3610 ca         1 515      -0.164000
     31 C30          1.0590     1.8640   -10.0420 ca         1 515      -0.099000
     32 O9           0.8610    -1.5720    -9.5850 o          1 515      -0.714500
     33 O10          0.2930    -0.5670   -11.4010 o          1 515      -0.714500
     34 C32         -0.1140     0.3970     9.6790 ca         1 515       0.195100
     35 C33          0.8460    -0.4350    10.3010 ca         1 515      -0.261000
     36 C34          0.9220    -0.5070    11.7040 ca         1 515      -0.005000
     37 C35          0.0340     0.2500    12.4970 ca         1 515      -0.065000
     38 C36         -0.9210     1.0770    11.8810 ca         1 515      -0.091000
     39 C37         -0.9950     1.1590    10.4740 ca         1 515      -0.123600
     40 C38         -2.0190     2.0520     9.8360 c          1 515       0.722600
     41 O11         -3.1960     1.8490    10.1010 o          1 515      -0.708000
     42 O12         -1.6310     3.0010     9.1690 o          1 515      -0.708000
     43 C16         -2.8440    -0.0650    -5.3140 ca         1 515      -0.033000
     44 C17         -3.8120    -0.0600    -4.2990 ca         1 515      -0.152000
     45 C18         -3.4380    -0.3100    -2.9750 ca         1 515      -0.112000
     46 C19         -2.0920    -0.5360    -2.6590 ca         1 515      -0.137000
     47 C20          0.2040     0.0560     5.9750 c3         1 515      -0.081400
     48 O2          -3.3720    -2.7090    -7.2730 o          1 515      -0.698000
     49 C41          1.8790    -1.3360    12.3200 ca         1 515      -0.111000
     50 C42          1.9510    -1.4090    13.7220 ca         1 515      -0.133000
     51 C43          1.0670    -0.6550    14.5110 ca         1 515      -0.156000
     52 C44          0.1090     0.1730    13.9010 ca         1 515      -0.084000
     53 H31          1.6200    -0.4940    -6.4710 ha         1 515       0.169000
     54 H41          2.2920    -0.7970    -4.1310 ha         1 515       0.100000
     55 H91         -0.2610     0.7310    -0.9160 h1         1 515       0.070700
     56 H1           0.7810     2.3740    -2.0860 hn         1 515       0.325500
     57 H2           0.4460    -1.4630     0.5780 hn         1 515       0.320500
     58 H121         1.3840    -2.1900     2.5770 h1         1 515       0.049200
     59 H122         2.5370    -0.8400     2.5340 h1         1 515       0.049200
     60 H131         0.7240     0.7220     3.3040 hc         1 515       0.049200
     61 H132        -0.4240    -0.6180     3.3270 hc         1 515       0.049200
     62 H141         0.5130    -1.3550     7.5930 h1         1 515       0.019700
     63 H142         1.6750     0.0010     7.5690 h1         1 515       0.019700
     64 H151         0.9580    -1.7710     5.0810 hc         1 515       0.031200
     65 H152         2.1070    -0.4320     5.0560 hc         1 515       0.031200
     66 H231         4.0290     2.9250    -3.4810 hc         1 515       0.057367
     67 H232         2.2840     2.9630    -3.9690 hc         1 515       0.057367
     68 H233         2.7370     3.7900    -2.5460 hc         1 515       0.057367
     69 H71          1.7960    -1.2850    -1.9000 hc         1 515       0.050700
     70 H72          0.1760    -1.6280    -1.3790 hc         1 515       0.050700
     71 H271        -0.3790     2.2310    -6.4540 ha         1 515       0.094000
     72 H281         0.7350     4.1460    -7.5290 ha         1 515       0.070000
     73 H291         1.6430     3.9360    -9.8350 ha         1 515       0.068000
     74 H301         1.4910     1.7780   -11.0370 ha         1 515       0.110000
     75 H331         1.5350    -1.0310     9.7120 ha         1 515       0.099000
     76 H361        -1.6070     1.6630    12.4890 ha         1 515       0.121000
     77 H161        -3.1730     0.1630    -6.3230 ha         1 515       0.142000
     78 H171        -4.8530     0.1400    -4.5410 ha         1 515       0.095000
     79 H181        -4.1900    -0.3110    -2.1880 ha         1 515       0.085000
     80 H191        -1.8450    -0.7090    -1.6170 ha         1 515       0.086000
     81 H201         0.2970     1.1370     5.8170 hc         1 515       0.063200
     82 H202        -0.8530    -0.2020     5.8420 hc         1 515       0.063200
     83 H411         2.5660    -1.9220    11.7150 ha         1 515       0.095000
     84 H421         2.6910    -2.0500    14.1950 ha         1 515       0.085000
     85 H431         1.1230    -0.7120    15.5960 ha         1 515       0.086000
     86 H441        -0.5720     0.7540    14.5190 ha         1 515       0.099000
     87 C31          0.4910    -0.5770   -10.1920 c          1 515       0.725600
@<TRIPOS>BOND
     1     1     2 ar  
     2     1     6 ar  
     3     1    43 ar  
     4     2     3 ar  
     5     2     7 1   
     6     3     4 ar  
     7     3    53 1   
     8     4     5 ar  
     9     4    54 1   
    10     5     6 ar  
    11     5    22 1   
    12     6    46 ar  
    13     7    20 1   
    14     7    27 1   
    15     8     9 1   
    16     8    11 1   
    17     8    22 1   
    18     8    55 1   
    19     9    10 1   
    20     9    56 1   
    21    10    18 2   
    22    10    19 1   
    23    11    12 1   
    24    11    21 2   
    25    12    13 1   
    26    12    57 1   
    27    13    14 1   
    28    13    58 1   
    29    13    59 1   
    30    14    16 1   
    31    14    60 1   
    32    14    61 1   
    33    15    17 1   
    34    15    47 1   
    35    15    62 1   
    36    15    63 1   
    37    16    47 1   
    38    16    64 1   
    39    16    65 1   
    40    17    34 1   
    41    19    66 1   
    42    19    67 1   
    43    19    68 1   
    44    20    23 2   
    45    20    24 1   
    46    22    69 1   
    47    22    70 1   
    48    24    25 1   
    49    24    48 1   
    50    26    27 ar  
    51    26    31 ar  
    52    26    87 1   
    53    27    28 ar  
    54    28    29 ar  
    55    28    71 1   
    56    29    30 ar  
    57    29    72 1   
    58    30    31 ar  
    59    30    73 1   
    60    31    74 1   
    61    32    87 1   
    62    33    87 1   
    63    34    35 ar  
    64    34    39 ar  
    65    35    36 ar  
    66    35    75 1   
    67    36    37 ar  
    68    36    49 ar  
    69    37    38 ar  
    70    37    52 ar  
    71    38    39 ar  
    72    38    76 1   
    73    39    40 1   
    74    40    41 1   
    75    40    42 1   
    76    43    44 ar  
    77    43    77 1   
    78    44    45 ar  
    79    44    78 1   
    80    45    46 ar  
    81    45    79 1   
    82    46    80 1   
    83    47    81 1   
    84    47    82 1   
    85    49    50 ar  
    86    49    83 1   
    87    50    51 ar  
    88    50    84 1   
    89    51    52 ar  
    90    51    85 1   
    91    52    86 1   
@<TRIPOS>SUBSTRUCTURE
     1 515         1 TEMP              0 ****  ****    0 ROOT
