@<TRIPOS>MOLECULE
515
   87    91     1     0     0
SMALL
bcc


@<TRIPOS>ATOM
      1 C1          -1.5990     0.1010    -4.9170 ca         1 515      -0.042000
      2 C2          -0.6490    -0.4070    -5.8410 ca         1 515       0.160600
      3 C3           0.5510    -0.8890    -5.4010 ca         1 515      -0.131000
      4 C4           0.8500    -0.9040    -4.0310 ca         1 515      -0.090000
      5 C5          -0.0440    -0.4580    -3.0900 ca         1 515      -0.139300
      6 C6          -1.3020     0.0470    -3.5240 ca         1 515      -0.015000
      7 N4          -0.9010    -0.3470    -7.2360 n          1 515      -0.319200
      8 C9           0.7600     0.9530    -1.1550 c3         1 515       0.042700
      9 N1           1.6370     1.6240    -2.0780 ns         1 515      -0.543900
     10 C10          2.9050     1.2310    -2.2820 c          1 515       0.678100
     11 C11          1.3510     1.0290     0.2620 c          1 515       0.674100
     12 N2           1.1640    -0.0370     1.0490 ns         1 515      -0.566900
     13 C12          1.6120    -0.1130     2.4220 c3         1 515       0.100000
     14 C13          0.4990     0.1260     3.4360 c3         1 515      -0.098400
     15 C14          0.4930    -0.0190     7.3090 c3         1 515       0.139400
     16 C15          1.0190     0.0040     4.8620 c3         1 515      -0.072400
     17 O1          -0.5690     0.0670     8.2420 os         1 515      -0.273900
     18 O4           3.4170     0.3280    -1.6350 o          1 515      -0.627100
     19 C23          3.6440     1.9610    -3.3740 c3         1 515      -0.176100
     20 C8          -1.8230    -1.1420    -7.8520 c          1 515       0.556100
     21 O8           1.9070     2.0510     0.6350 o          1 515      -0.623100
     22 C7           0.3520    -0.4540    -1.6400 c3         1 515      -0.035100
     23 O5          -2.0500    -1.0540    -9.0470 o          1 515      -0.598100
     24 C24         -2.5830    -2.1630    -6.9830 c          1 515       0.885600
     25 O6          -1.8860    -2.9820    -6.3680 o          1 515      -0.803300
     26 C25          0.6920     0.1410    -9.0550 ca         1 515      -0.103600
     27 C26         -0.1140     0.5630    -7.9950 ca         1 515       0.083600
     28 C27         -0.1810     1.9110    -7.6550 ca         1 515      -0.174000
     29 C28          0.5590     2.8560    -8.3480 ca         1 515      -0.168000
     30 C29          1.3480     2.4530    -9.4160 ca         1 515      -0.182000
     31 C30          1.3910     1.1130    -9.7680 ca         1 515      -0.117000
     32 O9           1.0140    -2.1320    -8.5130 o          1 515      -0.819800
     33 O10          0.9510    -1.5540   -10.6650 o          1 515      -0.819800
     34 C32         -0.2960    -0.0830     9.5500 ca         1 515       0.195100
     35 C33          0.9690    -0.2790    10.0500 ca         1 515      -0.279000
     36 C34          1.1780    -0.4700    11.4370 ca         1 515      -0.005000
     37 C35          0.0630    -0.4840    12.3090 ca         1 515      -0.065000
     38 C36         -1.2260    -0.3050    11.7550 ca         1 515      -0.109000
     39 C37         -1.4270    -0.0810    10.4210 ca         1 515      -0.123600
     40 C38         -2.8380     0.1920     9.9150 c          1 515       0.933200
     41 O11         -3.7100    -0.6260    10.2610 o          1 515      -0.813300
     42 O12         -2.9920     1.2270     9.2450 o          1 515      -0.813300
     43 C16         -2.8270     0.6690    -5.3330 ca         1 515      -0.051000
     44 C17         -3.7300     1.1440    -4.4230 ca         1 515      -0.170000
     45 C18         -3.4590     1.0550    -3.0440 ca         1 515      -0.130000
     46 C19         -2.2760     0.5240    -2.6110 ca         1 515      -0.155000
     47 C20         -0.0760     0.1310     5.9140 c3         1 515      -0.081400
     48 O2          -3.8180    -2.0780    -7.0470 o          1 515      -0.803300
     49 C41          2.4700    -0.6590    11.9780 ca         1 515      -0.129000
     50 C42          2.6440    -0.8520    13.3230 ca         1 515      -0.151000
     51 C43          1.5340    -0.8650    14.1920 ca         1 515      -0.174000
     52 C44          0.2710    -0.6860    13.6920 ca         1 515      -0.102000
     53 H31          1.2560    -1.2780    -6.1240 ha         1 515       0.187000
     54 H41          1.8120    -1.2850    -3.7090 ha         1 515       0.118000
     55 H91         -0.1430     1.5680    -1.1110 h1         1 515       0.070700
     56 H1           1.2490     2.3520    -2.6520 hn         1 515       0.325500
     57 H2           0.6980    -0.8490     0.6810 hn         1 515       0.320500
     58 H121         2.0450    -1.1030     2.5800 h1         1 515       0.049200
     59 H122         2.4130     0.6120     2.5640 h1         1 515       0.049200
     60 H131         0.0660     1.1180     3.2760 hc         1 515       0.049200
     61 H132        -0.3030    -0.6000     3.2710 hc         1 515       0.049200
     62 H141         1.0060    -0.9850     7.4020 h1         1 515       0.019700
     63 H142         1.2380     0.7640     7.5000 h1         1 515       0.019700
     64 H151         1.5200    -0.9630     4.9790 hc         1 515       0.031200
     65 H152         1.7850     0.7660     5.0350 hc         1 515       0.031200
     66 H231         4.6470     2.2140    -3.0370 hc         1 515       0.057367
     67 H232         3.7440     1.3000    -4.2370 hc         1 515       0.057367
     68 H233         3.1430     2.8690    -3.7010 hc         1 515       0.057367
     69 H71          1.1810    -1.1490    -1.5050 hc         1 515       0.050700
     70 H72         -0.4730    -0.8210    -1.0230 hc         1 515       0.050700
     71 H271        -0.8180     2.2250    -6.8370 ha         1 515       0.112000
     72 H281         0.5070     3.8980    -8.0620 ha         1 515       0.088000
     73 H291         1.9250     3.1790    -9.9750 ha         1 515       0.086000
     74 H301         1.9990     0.8040   -10.6100 ha         1 515       0.128000
     75 H331         1.8350    -0.2980     9.4030 ha         1 515       0.117000
     76 H361        -2.0810    -0.3310    12.4210 ha         1 515       0.139000
     77 H161        -3.0530     0.7470    -6.3870 ha         1 515       0.160000
     78 H171        -4.6590     1.5830    -4.7620 ha         1 515       0.113000
     79 H181        -4.1860     1.4130    -2.3270 ha         1 515       0.103000
     80 H191        -2.0870     0.4640    -1.5470 ha         1 515       0.104000
     81 H201        -0.5750     1.1000     5.8210 hc         1 515       0.063200
     82 H202        -0.8360    -0.6380     5.7460 hc         1 515       0.063200
     83 H411         3.3250    -0.6500    11.3120 ha         1 515       0.113000
     84 H421         3.6390    -0.9960    13.7240 ha         1 515       0.103000
     85 H431         1.6840    -1.0160    15.2530 ha         1 515       0.104000
     86 H441        -0.5860    -0.6950    14.3550 ha         1 515       0.117000
     87 C31          0.8870    -1.3180    -9.4440 c          1 515       0.936200
@<TRIPOS>BOND
     1     1     2 ar  
     2     1     6 ar  
     3     1    43 ar  
     4     2     3 ar  
     5     2     7 1   
     6     3     4 ar  
     7     3    53 1   
     8     4     5 ar  
     9     4    54 1   
    10     5     6 ar  
    11     5    22 1   
    12     6    46 ar  
    13     7    20 1   
    14     7    27 1   
    15     8     9 1   
    16     8    11 1   
    17     8    22 1   
    18     8    55 1   
    19     9    10 1   
    20     9    56 1   
    21    10    18 2   
    22    10    19 1   
    23    11    12 1   
    24    11    21 2   
    25    12    13 1   
    26    12    57 1   
    27    13    14 1   
    28    13    58 1   
    29    13    59 1   
    30    14    16 1   
    31    14    60 1   
    32    14    61 1   
    33    15    17 1   
    34    15    47 1   
    35    15    62 1   
    36    15    63 1   
    37    16    47 1   
    38    16    64 1   
    39    16    65 1   
    40    17    34 1   
    41    19    66 1   
    42    19    67 1   
    43    19    68 1   
    44    20    23 2   
    45    20    24 1   
    46    22    69 1   
    47    22    70 1   
    48    24    25 1   
    49    24    48 1   
    50    26    27 ar  
    51    26    31 ar  
    52    26    87 1   
    53    27    28 ar  
    54    28    29 ar  
    55    28    71 1   
    56    29    30 ar  
    57    29    72 1   
    58    30    31 ar  
    59    30    73 1   
    60    31    74 1   
    61    32    87 1   
    62    33    87 1   
    63    34    35 ar  
    64    34    39 ar  
    65    35    36 ar  
    66    35    75 1   
    67    36    37 ar  
    68    36    49 ar  
    69    37    38 ar  
    70    37    52 ar  
    71    38    39 ar  
    72    38    76 1   
    73    39    40 1   
    74    40    41 1   
    75    40    42 1   
    76    43    44 ar  
    77    43    77 1   
    78    44    45 ar  
    79    44    78 1   
    80    45    46 ar  
    81    45    79 1   
    82    46    80 1   
    83    47    81 1   
    84    47    82 1   
    85    49    50 ar  
    86    49    83 1   
    87    50    51 ar  
    88    50    84 1   
    89    51    52 ar  
    90    51    85 1   
    91    52    86 1   
@<TRIPOS>SUBSTRUCTURE
     1 515         1 TEMP              0 ****  ****    0 ROOT
