@<TRIPOS>MOLECULE
516
   72    76     1     0     0
SMALL
No Charge or Current Charge


@<TRIPOS>ATOM
      1 O16          0.8650     0.9460    -0.1950 o          1 516      -0.595100
      2 C15          1.4660     0.0430    -0.7660 c          1 516       0.583100
      3 C8           2.9810    -0.2230    -0.4670 c3         1 516       0.042700
      4 C9           3.2170    -1.2750     0.6810 c6         1 516      -0.066700
      5 C10          4.7100    -1.3670     1.1290 c6         1 516      -0.071900
      6 C11          4.9110    -2.3840     2.2800 c6         1 516      -0.073400
      7 C12          4.3780    -3.7830     1.8950 c6         1 516      -0.075400
      8 C13          2.8950    -3.7070     1.4680 c6         1 516      -0.073400
      9 C14          2.6980    -2.6970     0.3110 c6         1 516      -0.071900
     10 N7           3.6260     1.0770    -0.1570 ns         1 516      -0.501900
     11 C5           4.8410     1.5060    -0.6530 c          1 516       0.595100
     12 O6           5.5070     0.8170    -1.4180 o          1 516      -0.588100
     13 C3           5.2890     2.9320    -0.1620 c3         1 516       0.102500
     14 C4           5.4970     3.8760    -1.3700 c3         1 516      -0.088100
     15 N2           6.5110     2.9040     0.7100 n7         1 516      -0.840400
     16 C1           6.8250     4.1480     1.4450 c3         1 516       0.143100
     17 N17          0.7700    -0.8050    -1.6590 n          1 516      -0.413800
     18 C18         -0.7030    -0.7060    -1.8600 c5         1 516       0.070400
     19 C19         -0.9440    -1.9110    -2.8100 c5         1 516      -0.087400
     20 C20          0.2820    -1.8060    -3.7450 c5         1 516      -0.095400
     21 C21          1.4380    -1.5730    -2.7380 c5         1 516       0.099000
     22 C22         -1.5790    -0.8150    -0.6180 cc         1 516       0.443700
     23 S23         -1.1520    -1.8720     0.7020 ss         1 516      -0.031400
     24 C24         -2.5830    -1.3210     1.5180 cc         1 516      -0.259000
     25 C25         -3.3350    -0.4740     0.7300 cd         1 516       0.343500
     26 N26         -2.7200    -0.1510    -0.4730 nd         1 516      -0.623000
     27 C27         -4.5690     0.2220     1.2000 ca         1 516      -0.100500
     28 C28         -4.7180     0.3910     2.6000 ca         1 516      -0.094000
     29 C29         -5.7780     1.1270     3.1450 ca         1 516      -0.111000
     30 C30         -6.7200     1.7230     2.3050 ca         1 516      -0.093000
     31 C31         -6.6200     1.5650     0.9140 ca         1 516      -0.040000
     32 C33         -7.6040     2.1620     0.1010 ca         1 516      -0.103000
     33 C32         -5.5600     0.8070     0.3420 ca         1 516      -0.010000
     34 C36         -5.5770     0.6220    -1.0660 ca         1 516      -0.083000
     35 C35         -6.5650     1.2170    -1.8690 ca         1 516      -0.114000
     36 C34         -7.5720     1.9970    -1.2890 ca         1 516      -0.106000
     37 H8           3.4390    -0.6180    -1.3800 h1         1 516       0.087700
     38 H9           2.6330    -0.9130     1.5400 hc         1 516       0.067700
     39 H10          5.3380    -1.6500     0.2730 hc         1 516       0.042700
     40 H10A         5.0730    -0.3890     1.4720 hc         1 516       0.042700
     41 H11          5.9770    -2.4500     2.5360 hc         1 516       0.040950
     42 H11A         4.3950    -2.0280     3.1820 hc         1 516       0.040950
     43 H12          4.9810    -4.1980     1.0740 hc         1 516       0.040200
     44 H12A         4.4880    -4.4720     2.7440 hc         1 516       0.040200
     45 H13          2.5460    -4.7010     1.1580 hc         1 516       0.040950
     46 H13A         2.2750    -3.4120     2.3260 hc         1 516       0.040950
     47 H14          1.6320    -2.6670     0.0590 hc         1 516       0.042700
     48 H14A         3.2240    -3.0630    -0.5810 hc         1 516       0.042700
     49 HN7          3.1260     1.7220     0.4450 hn         1 516       0.326500
     50 H3           4.4500     3.3330     0.4230 h1         1 516       0.020700
     51 H4           6.3660     3.5670    -1.9630 hc         1 516       0.048700
     52 H4A          4.6160     3.8590    -2.0230 hc         1 516       0.048700
     53 H4B          5.6480     4.9120    -1.0470 hc         1 516       0.048700
     54 HN2          6.3870     2.1580     1.4080 hn         1 516       0.414000
     55 H1           7.7070     4.0030     2.0830 h1         1 516       0.031367
     56 H1A          7.0430     4.9750     0.7580 h1         1 516       0.031367
     57 H1B          5.9860     4.4460     2.0890 h1         1 516       0.031367
     58 H18         -0.9400     0.2370    -2.3710 h1         1 516       0.092700
     59 H19         -0.9460    -2.8650    -2.2670 hc         1 516       0.061200
     60 H19A        -1.8960    -1.8370    -3.3480 hc         1 516       0.061200
     61 H20          0.4330    -2.7030    -4.3550 hc         1 516       0.060700
     62 H20A         0.1830    -0.9560    -4.4320 hc         1 516       0.060700
     63 H21          2.2660    -1.0200    -3.2020 h1         1 516       0.060700
     64 H21A         1.8230    -2.5280    -2.3590 h1         1 516       0.060700
     65 H24         -2.7920    -1.6900     2.5120 h4         1 516       0.162000
     66 H28         -3.9840    -0.0150     3.2900 ha         1 516       0.116000
     67 H29         -5.8570     1.2490     4.2230 ha         1 516       0.114000
     68 H30         -7.5340     2.3010     2.7370 ha         1 516       0.112000
     69 H33         -8.4040     2.7480     0.5490 ha         1 516       0.111000
     70 H36         -4.8570    -0.0100    -1.5700 ha         1 516       0.124000
     71 H35         -6.5530     1.0620    -2.9450 ha         1 516       0.111000
     72 H34         -8.3370     2.4550    -1.9120 ha         1 516       0.111000
@<TRIPOS>BOND
     1     1     2 2   
     2     2     3 1   
     3     2    17 1   
     4     3     4 1   
     5     3    10 1   
     6     3    37 1   
     7     4     5 1   
     8     4     9 1   
     9     4    38 1   
    10     5     6 1   
    11     5    39 1   
    12     5    40 1   
    13     6     7 1   
    14     6    41 1   
    15     6    42 1   
    16     7     8 1   
    17     7    43 1   
    18     7    44 1   
    19     8     9 1   
    20     8    45 1   
    21     8    46 1   
    22     9    47 1   
    23     9    48 1   
    24    10    11 1   
    25    10    49 1   
    26    11    12 2   
    27    11    13 1   
    28    13    14 1   
    29    13    15 1   
    30    13    50 1   
    31    14    51 1   
    32    14    52 1   
    33    14    53 1   
    34    15    16 1   
    35    15    54 1   
    36    16    55 1   
    37    16    56 1   
    38    16    57 1   
    39    17    18 1   
    40    17    21 1   
    41    18    19 1   
    42    18    22 1   
    43    18    58 1   
    44    19    20 1   
    45    19    59 1   
    46    19    60 1   
    47    20    21 1   
    48    20    61 1   
    49    20    62 1   
    50    21    63 1   
    51    21    64 1   
    52    22    23 1   
    53    22    26 2   
    54    23    24 1   
    55    24    25 2   
    56    24    65 1   
    57    25    26 1   
    58    25    27 1   
    59    27    28 ar  
    60    27    33 ar  
    61    28    29 ar  
    62    28    66 1   
    63    29    30 ar  
    64    29    67 1   
    65    30    31 ar  
    66    30    68 1   
    67    31    32 ar  
    68    31    33 ar  
    69    32    36 ar  
    70    32    69 1   
    71    33    34 ar  
    72    34    35 ar  
    73    34    70 1   
    74    35    36 ar  
    75    35    71 1   
    76    36    72 1   
@<TRIPOS>SUBSTRUCTURE
     1 516         1 TEMP              0 ****  ****    0 ROOT
