@<TRIPOS>MOLECULE
516
   72    76     1     0     0
SMALL
bcc


@<TRIPOS>ATOM
      1 O16          0.9830     0.5910     0.5540 o          1 516      -0.595100
      2 C15          1.6020    -0.0840    -0.2580 c          1 516       0.650100
      3 C8           3.0630    -0.4460     0.0200 c3         1 516       0.042700
      4 C9           3.1660    -1.3670     1.2430 c6         1 516      -0.066700
      5 C10          4.6240    -1.6440     1.6110 c6         1 516      -0.071900
      6 C11          4.7310    -2.6150     2.7840 c6         1 516      -0.073400
      7 C12          3.9950    -3.9200     2.5070 c6         1 516      -0.075400
      8 C13          2.5410    -3.6530     2.1400 c6         1 516      -0.073400
      9 C14          2.4330    -2.6810     0.9710 c6         1 516      -0.071900
     10 N7           3.7920     0.7860     0.2090 ns         1 516      -0.568900
     11 C5           4.5540     1.3560    -0.7420 c          1 516       0.662100
     12 O6           4.7660     0.8470    -1.8320 o          1 516      -0.588100
     13 C3           5.1070     2.7240    -0.3620 c3         1 516       0.102500
     14 C4           4.2510     3.7810    -1.0590 c3         1 516      -0.088100
     15 N2           6.4950     2.8100    -0.7750 n7         1 516      -0.785200
     16 C1           7.1690     3.9960    -0.2830 c3         1 516       0.143100
     17 N17          1.0280    -0.5170    -1.3950 n          1 516      -0.480800
     18 C18         -0.3360    -0.1020    -1.7140 c5         1 516       0.070400
     19 C19         -0.5890    -0.7330    -3.0900 c5         1 516      -0.087400
     20 C20          0.8000    -0.7930    -3.7100 c5         1 516      -0.095400
     21 C21          1.6910    -1.1630    -2.5320 c5         1 516       0.099000
     22 C22         -1.3430    -0.5300    -0.6960 cc         1 516       0.443700
     23 S23         -1.2770    -2.0910     0.0450 ss         1 516      -0.176300
     24 C24         -2.7440    -1.7430     0.8560 cc         1 516      -0.197400
     25 C25         -3.1820    -0.4990     0.5180 cd         1 516       0.408800
     26 N26         -2.3750     0.1700    -0.3680 nd         1 516      -0.623000
     27 C27         -4.3970     0.1300     1.0650 ca         1 516      -0.100500
     28 C28         -4.5810     0.1400     2.4270 ca         1 516      -0.112000
     29 C29         -5.7250     0.7180     3.0090 ca         1 516      -0.129000
     30 C30         -6.6800     1.2900     2.2180 ca         1 516      -0.111000
     31 C31         -6.5390     1.2940     0.8110 ca         1 516      -0.040000
     32 C33         -7.5370     1.8610    -0.0160 ca         1 516      -0.121000
     33 C32         -5.3890     0.7060     0.2160 ca         1 516      -0.010000
     34 C36         -5.3030     0.6880    -1.1980 ca         1 516      -0.101000
     35 C35         -6.2890     1.2380    -1.9720 ca         1 516      -0.132000
     36 C34         -7.4170     1.8370    -1.3780 ca         1 516      -0.124000
     37 H8           3.5180    -0.9640    -0.8220 h1         1 516       0.087700
     38 H9           2.6840    -0.8680     2.0940 hc         1 516       0.067700
     39 H10          5.1420    -2.0640     0.7400 hc         1 516       0.042700
     40 H10A         5.1370    -0.7120     1.8590 hc         1 516       0.042700
     41 H11          5.7830    -2.8090     3.0060 hc         1 516       0.040950
     42 H11A         4.3090    -2.1450     3.6790 hc         1 516       0.040950
     43 H12          4.4870    -4.4470     1.6820 hc         1 516       0.040200
     44 H12A         4.0530    -4.5800     3.3760 hc         1 516       0.040200
     45 H13          2.0320    -4.5870     1.8890 hc         1 516       0.040950
     46 H13A         2.0160    -3.2370     3.0070 hc         1 516       0.040950
     47 H14          1.3790    -2.4980     0.7500 hc         1 516       0.042700
     48 H14A         2.8600    -3.1460     0.0740 hc         1 516       0.042700
     49 HN7          3.6410     1.2890     1.0700 hn         1 516       0.326500
     50 H3           4.9960     2.8640     0.7270 h1         1 516       0.020700
     51 H4           4.3590     3.7050    -2.1410 hc         1 516       0.048700
     52 H4A          3.1980     3.6530    -0.8070 hc         1 516       0.048700
     53 H4B          4.5340     4.7870    -0.7540 hc         1 516       0.048700
     54 HN2          6.9940     1.9990    -0.4310 hn         1 516       0.358800
     55 H1           8.2320     3.9200    -0.5050 h1         1 516       0.031367
     56 H1A          6.7990     4.8900    -0.7850 h1         1 516       0.031367
     57 H1B          7.0610     4.1550     0.7990 h1         1 516       0.031367
     58 H18         -0.3950     0.9890    -1.7820 h1         1 516       0.092700
     59 H19         -0.9950    -1.7410    -2.9750 hc         1 516       0.061200
     60 H19A        -1.3040    -0.1490    -3.6670 hc         1 516       0.061200
     61 H20          0.8720    -1.5160    -4.5210 hc         1 516       0.060700
     62 H20A         1.0850     0.1840    -4.1030 hc         1 516       0.060700
     63 H21          2.7070    -0.7950    -2.6620 h1         1 516       0.060700
     64 H21A         1.7320    -2.2450    -2.3890 h1         1 516       0.060700
     65 H24         -3.2060    -2.4550     1.5200 h4         1 516       0.180000
     66 H28         -3.8210    -0.2870     3.0690 ha         1 516       0.134000
     67 H29         -5.8340     0.7140     4.0850 ha         1 516       0.132000
     68 H30         -7.5590     1.7450     2.6580 ha         1 516       0.130000
     69 H33         -8.4060     2.3100     0.4510 ha         1 516       0.129000
     70 H36         -4.4470     0.2350    -1.6770 ha         1 516       0.142000
     71 H35         -6.2030     1.2090    -3.0500 ha         1 516       0.129000
     72 H34         -8.1890     2.2700    -2.0010 ha         1 516       0.129000
@<TRIPOS>BOND
     1     1     2 2   
     2     2     3 1   
     3     2    17 1   
     4     3     4 1   
     5     3    10 1   
     6     3    37 1   
     7     4     5 1   
     8     4     9 1   
     9     4    38 1   
    10     5     6 1   
    11     5    39 1   
    12     5    40 1   
    13     6     7 1   
    14     6    41 1   
    15     6    42 1   
    16     7     8 1   
    17     7    43 1   
    18     7    44 1   
    19     8     9 1   
    20     8    45 1   
    21     8    46 1   
    22     9    47 1   
    23     9    48 1   
    24    10    11 1   
    25    10    49 1   
    26    11    12 2   
    27    11    13 1   
    28    13    14 1   
    29    13    15 1   
    30    13    50 1   
    31    14    51 1   
    32    14    52 1   
    33    14    53 1   
    34    15    16 1   
    35    15    54 1   
    36    16    55 1   
    37    16    56 1   
    38    16    57 1   
    39    17    18 1   
    40    17    21 1   
    41    18    19 1   
    42    18    22 1   
    43    18    58 1   
    44    19    20 1   
    45    19    59 1   
    46    19    60 1   
    47    20    21 1   
    48    20    61 1   
    49    20    62 1   
    50    21    63 1   
    51    21    64 1   
    52    22    23 1   
    53    22    26 2   
    54    23    24 1   
    55    24    25 2   
    56    24    65 1   
    57    25    26 1   
    58    25    27 1   
    59    27    28 ar  
    60    27    33 ar  
    61    28    29 ar  
    62    28    66 1   
    63    29    30 ar  
    64    29    67 1   
    65    30    31 ar  
    66    30    68 1   
    67    31    32 ar  
    68    31    33 ar  
    69    32    36 ar  
    70    32    69 1   
    71    33    34 ar  
    72    34    35 ar  
    73    34    70 1   
    74    35    36 ar  
    75    35    71 1   
    76    36    72 1   
@<TRIPOS>SUBSTRUCTURE
     1 516         1 TEMP              0 ****  ****    0 ROOT
