@<TRIPOS>MOLECULE
518
   66    70     1     0     0
SMALL
bcc


@<TRIPOS>ATOM
      1 C1          -2.7830    -0.8630    -0.0520 ca         1 518       0.085600
      2 C2          -1.6730    -0.0200    -0.1270 ca         1 518      -0.170500
      3 C3          -0.3990    -0.5590    -0.1970 ca         1 518      -0.075500
      4 C4          -0.1860    -1.9370    -0.1950 ca         1 518      -0.157500
      5 C5          -1.3040    -2.7720    -0.1170 ca         1 518      -0.075500
      6 C6          -2.5750    -2.2460    -0.0470 ca         1 518      -0.170500
      7 C7           1.1410    -2.5170    -0.2730 cc         1 518       0.333200
      8 C8           1.5780    -3.8110    -0.3330 cd         1 518      -0.276300
      9 C9           2.9910    -3.7550    -0.3950 cd         1 518      -0.182300
     10 C10          3.3210    -2.4370    -0.3700 cc         1 518       0.174200
     11 O11          2.1990    -1.6850    -0.2960 os         1 518      -0.327800
     12 C12          4.6400    -1.7980    -0.3880 c          1 518       0.609600
     13 O13          5.6500    -2.4890    -0.4450 o          1 518      -0.596100
     14 N14          4.6720    -0.4540    -0.3530 ns         1 518      -0.540900
     15 C15          5.9260     0.2370    -0.2180 c3         1 518       0.037700
     16 C16          6.5520    -0.0640     1.1490 c          1 518       0.651100
     17 C17          5.7700     1.7520    -0.4240 c6         1 518      -0.066700
     18 N18          7.8750     0.1250     1.2070 ns         1 518      -0.571900
     19 O19          5.8840    -0.4120     2.1100 o          1 518      -0.594100
     20 N20         -4.1060    -0.4330     0.0270 ns         1 518      -0.458100
     21 C21          8.6320    -0.0450     2.4250 c3         1 518       0.096300
     22 C22          5.3300     2.0860    -1.8500 c6         1 518      -0.073900
     23 C23          5.3010     3.5940    -2.0780 c6         1 518      -0.074900
     24 C24          4.4120     4.2940    -1.0560 c6         1 518      -0.076400
     25 C25          4.8290     3.9460     0.3690 c6         1 518      -0.074900
     26 C26          4.8560     2.4360     0.5940 c6         1 518      -0.073900
     27 C27         -4.5970     0.8270    -0.0650 c          1 518       0.720300
     28 C28         -6.0620     0.9280     0.0420 cc         1 518      -0.071100
     29 O29         -3.9290     1.8330    -0.2260 o          1 518      -0.567100
     30 O30         -6.7950    -0.2030     0.2330 os         1 518      -0.183200
     31 C31         -6.8460     2.0280    -0.0280 cd         1 518      -0.088200
     32 C32         -8.1900     1.5620     0.1310 ca         1 518      -0.132800
     33 C33         -8.0890     0.1770     0.2880 ca         1 518       0.078100
     34 C34         -9.1810    -0.6550     0.4690 ca         1 518      -0.129000
     35 C35        -10.4200    -0.0380     0.4900 ca         1 518      -0.096000
     36 C36        -10.5540     1.3510     0.3350 ca         1 518      -0.151000
     37 C37         -9.4510     2.1630     0.1550 ca         1 518      -0.064000
     38 H2          -1.7860     1.0510    -0.1310 ha         1 518       0.150500
     39 H3           0.4360     0.1270    -0.2540 ha         1 518       0.140000
     40 H5          -1.1860    -3.8470    -0.1080 ha         1 518       0.140000
     41 H6          -3.4220    -2.9190     0.0100 ha         1 518       0.150500
     42 H8           0.9660    -4.6970    -0.3330 ha         1 518       0.162000
     43 H9           3.6760    -4.5840    -0.4490 ha         1 518       0.176000
     44 HN14         3.8190     0.0600    -0.1990 hn         1 518       0.334500
     45 H15          6.6080    -0.1240    -0.9960 h1         1 518       0.075700
     46 H17          6.7760     2.1670    -0.2890 hc         1 518       0.051700
     47 HN20        -4.7800    -1.1770     0.1400 hn         1 518       0.335500
     48 H21          8.6060    -1.0770     2.7770 h1         1 518       0.040367
     49 H21A         9.6660     0.2230     2.2280 h1         1 518       0.040367
     50 H22          6.0050     1.6090    -2.5660 hc         1 518       0.046950
     51 H22A         4.3330     1.6730    -2.0410 hc         1 518       0.046950
     52 H23          6.3200     3.9880    -2.0030 hc         1 518       0.040700
     53 H23A         4.9580     3.8110    -3.0920 hc         1 518       0.040700
     54 H24          4.4420     5.3760    -1.2050 hc         1 518       0.041200
     55 H24A         3.3710     3.9880    -1.2110 hc         1 518       0.041200
     56 H25          5.8250     4.3570     0.5690 hc         1 518       0.040700
     57 H25A         4.1520     4.4130     1.0870 hc         1 518       0.040700
     58 H26          3.8310     2.0560     0.5050 hc         1 518       0.046950
     59 H26A         5.1780     2.2190     1.6150 hc         1 518       0.046950
     60 H31         -6.5130     3.0430    -0.1770 ha         1 518       0.182000
     61 H34         -9.0740    -1.7250     0.5870 ha         1 518       0.151000
     62 H35        -11.3060    -0.6420     0.6300 ha         1 518       0.137000
     63 H36        -11.5430     1.7880     0.3570 ha         1 518       0.137000
     64 H37         -9.5600     3.2330     0.0370 ha         1 518       0.143000
     65 H28          8.3740     0.3670     0.3670 hn         1 518       0.314500
     66 H29          8.2570     0.5970     3.2220 h1         1 518       0.040367
@<TRIPOS>BOND
     1     1     2 ar  
     2     1     6 ar  
     3     1    20 1   
     4     2     3 ar  
     5     2    38 1   
     6     3     4 ar  
     7     3    39 1   
     8     4     5 ar  
     9     4     7 1   
    10     5     6 ar  
    11     5    40 1   
    12     6    41 1   
    13     7     8 2   
    14     7    11 1   
    15     8     9 1   
    16     8    42 1   
    17     9    10 2   
    18     9    43 1   
    19    10    11 1   
    20    10    12 1   
    21    12    13 2   
    22    12    14 1   
    23    14    15 1   
    24    14    44 1   
    25    15    16 1   
    26    15    17 1   
    27    15    45 1   
    28    16    18 1   
    29    16    19 2   
    30    17    22 1   
    31    17    26 1   
    32    17    46 1   
    33    18    21 1   
    34    18    65 1   
    35    20    27 1   
    36    20    47 1   
    37    21    48 1   
    38    21    49 1   
    39    21    66 1   
    40    22    23 1   
    41    22    50 1   
    42    22    51 1   
    43    23    24 1   
    44    23    52 1   
    45    23    53 1   
    46    24    25 1   
    47    24    54 1   
    48    24    55 1   
    49    25    26 1   
    50    25    56 1   
    51    25    57 1   
    52    26    58 1   
    53    26    59 1   
    54    27    28 1   
    55    27    29 2   
    56    28    30 1   
    57    28    31 2   
    58    30    33 1   
    59    31    32 1   
    60    31    60 1   
    61    32    33 ar  
    62    32    37 ar  
    63    33    34 ar  
    64    34    35 ar  
    65    34    61 1   
    66    35    36 ar  
    67    35    62 1   
    68    36    37 ar  
    69    36    63 1   
    70    37    64 1   
@<TRIPOS>SUBSTRUCTURE
     1 518         1 TEMP              0 ****  ****    0 ROOT
