@<TRIPOS>MOLECULE
518
   66    70     1     0     0
SMALL
No Charge or Current Charge


@<TRIPOS>ATOM
      1 C1          -3.0270    -0.6900    -0.0910 ca         1 518      -0.007000
      2 C2          -1.9130     0.0510     0.3540 ca         1 518      -0.152500
      3 C3          -0.6080    -0.3580     0.0300 ca         1 518      -0.057500
      4 C4          -0.3840    -1.5140    -0.7460 ca         1 518      -0.157500
      5 C5          -1.5000    -2.2550    -1.1890 ca         1 518      -0.057500
      6 C6          -2.8040    -1.8440    -0.8630 ca         1 518      -0.152500
      7 C7           0.9900    -1.9190    -1.0700 cc         1 518       0.223500
      8 C8           1.3610    -2.9470    -1.8960 cd         1 518      -0.193000
      9 C9           2.7730    -2.9500    -1.9090 cd         1 518      -0.099000
     10 C10          3.1870    -1.9250    -1.0930 cc         1 518       0.064500
     11 O11          2.0900    -1.2710    -0.5630 os         1 518      -0.239000
     12 C12          4.5940    -1.5440    -0.8050 c          1 518       0.542600
     13 O13          5.5740    -2.1120    -1.2700 o          1 518      -0.596100
     14 N14          4.6980    -0.4710     0.0550 ns         1 518      -0.473900
     15 C15          5.9620     0.1580     0.5050 c3         1 518       0.037700
     16 C16          5.8810     0.4830     2.0280 c          1 518       0.584100
     17 C17          6.3500     1.4010    -0.3710 c6         1 518      -0.066700
     18 N18          7.0730     0.8520     2.6160 ns         1 518      -0.504900
     19 O19          4.8420     0.4200     2.6740 o          1 518      -0.594100
     20 N20         -4.3760    -0.3400     0.1960 ns         1 518      -0.132000
     21 C21          7.2200     1.2070     4.0290 c3         1 518       0.096300
     22 C22          6.6460     1.0240    -1.8530 c6         1 518      -0.073900
     23 C23          7.0940     2.2600    -2.6720 c6         1 518      -0.074900
     24 C24          6.0380     3.3900    -2.6000 c6         1 518      -0.076400
     25 C25          5.7300     3.7740    -1.1320 c6         1 518      -0.074900
     26 C26          5.2870     2.5390    -0.3080 c6         1 518      -0.073900
     27 C27         -4.9420     0.7090     0.9080 c          1 518       0.653300
     28 C28         -6.4270     0.6390     0.9270 cc         1 518      -0.071100
     29 O29         -4.3060     1.6000     1.4630 o          1 518      -0.567100
     30 O30         -7.1650    -0.3710     0.2970 os         1 518      -0.183200
     31 C31         -7.2780     1.5350     1.5500 cd         1 518      -0.138200
     32 C32         -8.6130     1.0890     1.3170 ca         1 518      -0.132800
     33 C33         -8.4820    -0.0500     0.5650 ca         1 518       0.078100
     34 C34         -9.6070    -0.7690     0.1430 ca         1 518      -0.111000
     35 C35        -10.8820    -0.2870     0.5150 ca         1 518      -0.078000
     36 C36        -11.0060     0.8920     1.2920 ca         1 518      -0.133000
     37 C37         -9.8570     1.6010     1.7060 ca         1 518      -0.046000
     38 H2          -2.0320     0.9480     0.9530 ha         1 518       0.132500
     39 H3           0.2320     0.2350     0.3870 ha         1 518       0.122000
     40 H5          -1.3720    -3.1550    -1.7840 ha         1 518       0.122000
     41 H6          -3.6480    -2.4330    -1.2160 ha         1 518       0.132500
     42 H8           0.7110    -3.6230    -2.4390 ha         1 518       0.144000
     43 H9           3.4190    -3.6280    -2.4590 ha         1 518       0.158000
     44 HN14         3.8240    -0.1020     0.4170 hn         1 518       0.334500
     45 H15          6.7690    -0.5800     0.4050 h1         1 518       0.075700
     46 H17          7.2850     1.7920     0.0550 hc         1 518       0.051700
     47 HN20        -5.0570    -0.9780    -0.1930 hn         1 518       0.169000
     48 H21          6.9220     0.3570     4.6570 h1         1 518       0.040367
     49 H21A         8.2670     1.4620     4.2370 h1         1 518       0.040367
     50 H22          7.4270     0.2520    -1.8960 hc         1 518       0.046950
     51 H22A         5.7510     0.5920    -2.3200 hc         1 518       0.046950
     52 H23          8.0570     2.6280    -2.2930 hc         1 518       0.040700
     53 H23A         7.2600     1.9720    -3.7190 hc         1 518       0.040700
     54 H24          6.3970     4.2710    -3.1490 hc         1 518       0.041200
     55 H24A         5.1140     3.0650    -3.0990 hc         1 518       0.041200
     56 H25          6.6210     4.2240    -0.6730 hc         1 518       0.040700
     57 H25A         4.9440     4.5410    -1.1050 hc         1 518       0.040700
     58 H26          4.3220     2.1770    -0.6890 hc         1 518       0.046950
     59 H26A         5.1160     2.8440     0.7330 hc         1 518       0.046950
     60 H31         -6.9730     2.4150     2.1140 ha         1 518       0.232000
     61 H34         -9.4990    -1.6720    -0.4530 ha         1 518       0.133000
     62 H35        -11.7750    -0.8240     0.2020 ha         1 518       0.119000
     63 H36        -11.9920     1.2540     1.5720 ha         1 518       0.119000
     64 H37         -9.9350     2.5070     2.3030 ha         1 518       0.125000
     65 H28          7.8940     0.8780     2.0220 hn         1 518       0.314500
     66 H29          6.5840     2.0720     4.2600 h1         1 518       0.040367
@<TRIPOS>BOND
     1     1     2 ar  
     2     1     6 ar  
     3     1    20 1   
     4     2     3 ar  
     5     2    38 1   
     6     3     4 ar  
     7     3    39 1   
     8     4     5 ar  
     9     4     7 1   
    10     5     6 ar  
    11     5    40 1   
    12     6    41 1   
    13     7     8 2   
    14     7    11 1   
    15     8     9 1   
    16     8    42 1   
    17     9    10 2   
    18     9    43 1   
    19    10    11 1   
    20    10    12 1   
    21    12    13 2   
    22    12    14 1   
    23    14    15 1   
    24    14    44 1   
    25    15    16 1   
    26    15    17 1   
    27    15    45 1   
    28    16    18 1   
    29    16    19 2   
    30    17    22 1   
    31    17    26 1   
    32    17    46 1   
    33    18    21 1   
    34    18    65 1   
    35    20    27 1   
    36    20    47 1   
    37    21    48 1   
    38    21    49 1   
    39    21    66 1   
    40    22    23 1   
    41    22    50 1   
    42    22    51 1   
    43    23    24 1   
    44    23    52 1   
    45    23    53 1   
    46    24    25 1   
    47    24    54 1   
    48    24    55 1   
    49    25    26 1   
    50    25    56 1   
    51    25    57 1   
    52    26    58 1   
    53    26    59 1   
    54    27    28 1   
    55    27    29 2   
    56    28    30 1   
    57    28    31 2   
    58    30    33 1   
    59    31    32 1   
    60    31    60 1   
    61    32    33 ar  
    62    32    37 ar  
    63    33    34 ar  
    64    34    35 ar  
    65    34    61 1   
    66    35    36 ar  
    67    35    62 1   
    68    36    37 ar  
    69    36    63 1   
    70    37    64 1   
@<TRIPOS>SUBSTRUCTURE
     1 518         1 TEMP              0 ****  ****    0 ROOT
