@<TRIPOS>MOLECULE
519
   58    60     1     0     0
SMALL
abcg2


@<TRIPOS>ATOM
      1 C01         -8.5690     0.9460    -1.2570 c3         1 519      -0.110600
      2 C02         -8.3870     0.3560     0.1390 c3         1 519       0.123700
      3 C03         -9.5220    -0.5950     0.4900 c3         1 519      -0.110600
      4 N04         -7.1250    -0.3490     0.2750 ns         1 519      -0.520900
      5 C05         -5.9410     0.2950     0.4550 c          1 519       0.649100
      6 O06         -5.8710     1.5000     0.6830 o          1 519      -0.645100
      7 N07         -4.8440    -0.5100     0.4190 ns         1 519      -0.520900
      8 C08         -3.4940     0.0090     0.4400 c6         1 519       0.119700
      9 C09         -3.0160     0.4480    -0.9460 c6         1 519      -0.089400
     10 C10         -1.5830     0.9650    -0.9080 c6         1 519      -0.089400
     11 C11         -0.6400    -0.0810    -0.3230 c6         1 519       0.242500
     12 C12         -1.1130    -0.5150     1.0650 c6         1 519      -0.089400
     13 C13         -2.5460    -1.0340     1.0250 c6         1 519      -0.089400
     14 N14          0.7100     0.4440    -0.2970 nu         1 519      -0.909100
     15 C15          1.8260    -0.2940    -0.2840 ca         1 519       0.430900
     16 N16          1.7010    -1.6270    -0.4330 nb         1 519      -0.263000
     17 C17          2.8210    -2.3090    -0.4420 ca         1 519       0.200900
     18 C18          4.0820    -1.7340    -0.3020 ca         1 519      -0.306800
     19 C19          5.3020    -2.4570    -0.3060 cc         1 519      -0.050200
     20 C20          6.4660    -1.7990    -0.1590 cd         1 519      -0.317200
     21 C21          6.5110    -0.3590     0.0150 c          1 519       0.569200
     22 O22          7.5650     0.2420     0.1580 o          1 519      -0.539000
     23 N23          5.2950     0.3240     0.0140 n          1 519      -0.366300
     24 C24          5.2900     1.7950     0.1950 c3         1 519       0.106700
     25 C25          5.7900     2.2100     1.5730 c3         1 519      -0.100100
     26 C26          5.9850     2.5240    -0.9480 c3         1 519      -0.100100
     27 C27          4.0970    -0.3330    -0.1420 ca         1 519       0.318900
     28 N28          2.9770     0.3660    -0.1370 nb         1 519      -0.323000
     29 H011        -7.7670     1.6430    -1.4980 hc         1 519       0.041033
     30 H012        -8.5760     0.1570    -2.0120 hc         1 519       0.041033
     31 H013        -9.5150     1.4850    -1.3260 hc         1 519       0.041033
     32 H021        -8.3830     1.1710     0.8640 h1         1 519       0.079700
     33 H033        -9.5670    -1.4310    -0.2130 hc         1 519       0.041033
     34 H032        -9.4050    -1.0010     1.4950 hc         1 519       0.041033
     35 H031       -10.4790    -0.0750     0.4440 hc         1 519       0.041033
     36 H041        -7.1080    -1.3020    -0.0520 hn         1 519       0.296500
     37 H071        -4.9570    -1.4630     0.1100 hn         1 519       0.298500
     38 H081        -3.4860     0.8810     1.0990 h1         1 519       0.083700
     39 H091        -3.0840    -0.4050    -1.6300 hc         1 519       0.049700
     40 H092        -3.6790     1.2220    -1.3360 hc         1 519       0.049700
     41 H102        -1.2540     1.2420    -1.9120 hc         1 519       0.052450
     42 H101        -1.5410     1.8740    -0.2960 hc         1 519       0.052450
     43 H111        -0.6450    -0.9550    -0.9800 h1         1 519       0.080700
     44 H122        -0.4490    -1.2880     1.4570 hc         1 519       0.052450
     45 H121        -1.0460     0.3400     1.7450 hc         1 519       0.052450
     46 H132        -2.8740    -1.3100     2.0300 hc         1 519       0.049700
     47 H131        -2.5840    -1.9450     0.4160 hc         1 519       0.049700
     48 H141         0.8320     1.4280    -0.1130 hn         1 519       0.504000
     49 H171         2.7400    -3.3860    -0.5620 h4         1 519       0.022100
     50 H191         5.2810    -3.5340    -0.4280 ha         1 519       0.187000
     51 H201         7.4170    -2.3120    -0.1580 ha         1 519       0.210000
     52 H241         4.2390     2.0630     0.1470 h1         1 519       0.080700
     53 H251         6.8600     2.0660     1.6950 hc         1 519       0.046367
     54 H253         5.5760     3.2700     1.7150 hc         1 519       0.046367
     55 H252         5.2700     1.6620     2.3590 hc         1 519       0.046367
     56 H261         5.6110     2.1840    -1.9140 hc         1 519       0.046367
     57 H262         5.7650     3.5890    -0.8660 hc         1 519       0.046367
     58 H263         7.0650     2.4030    -0.9300 hc         1 519       0.046367
@<TRIPOS>BOND
     1     1     2 1   
     2     1    29 1   
     3     1    30 1   
     4     1    31 1   
     5     2     3 1   
     6     2     4 1   
     7     2    32 1   
     8     3    33 1   
     9     3    34 1   
    10     3    35 1   
    11     4     5 1   
    12     4    36 1   
    13     5     6 2   
    14     5     7 1   
    15     7     8 1   
    16     7    37 1   
    17     8     9 1   
    18     8    13 1   
    19     8    38 1   
    20     9    10 1   
    21     9    39 1   
    22     9    40 1   
    23    10    11 1   
    24    10    41 1   
    25    10    42 1   
    26    11    12 1   
    27    11    14 1   
    28    11    43 1   
    29    12    13 1   
    30    12    44 1   
    31    12    45 1   
    32    13    46 1   
    33    13    47 1   
    34    14    15 1   
    35    14    48 1   
    36    15    16 ar  
    37    15    28 ar  
    38    16    17 ar  
    39    17    18 ar  
    40    17    49 1   
    41    18    19 1   
    42    18    27 ar  
    43    19    20 2   
    44    19    50 1   
    45    20    21 1   
    46    20    51 1   
    47    21    22 2   
    48    21    23 1   
    49    23    24 1   
    50    23    27 1   
    51    24    25 1   
    52    24    26 1   
    53    24    52 1   
    54    25    53 1   
    55    25    54 1   
    56    25    55 1   
    57    26    56 1   
    58    26    57 1   
    59    26    58 1   
    60    27    28 ar  
@<TRIPOS>SUBSTRUCTURE
     1 519         1 TEMP              0 ****  ****    0 ROOT
