@<TRIPOS>MOLECULE
519
   58    60     1     0     0
SMALL
No Charge or Current Charge


@<TRIPOS>ATOM
      1 C01         -8.9120     0.8100    -1.1910 c3         1 519      -0.110600
      2 C02         -8.5220     0.3310     0.2210 c3         1 519       0.123700
      3 C03         -9.5420    -0.6670     0.8000 c3         1 519      -0.110600
      4 N04         -7.1850    -0.2610     0.2150 ns         1 519      -0.520900
      5 C05         -6.0200     0.4490     0.3140 c          1 519       0.649100
      6 O06         -5.9710     1.6610     0.4380 o          1 519      -0.645100
      7 N07         -4.9140    -0.3530     0.2640 ns         1 519      -0.520900
      8 C08         -3.5250     0.1140     0.3230 c6         1 519       0.119700
      9 C09         -3.0500     0.5920    -1.0750 c6         1 519      -0.089400
     10 C10         -1.5670     1.0440    -1.0460 c6         1 519      -0.089400
     11 C11         -0.6450    -0.0910    -0.5330 c6         1 519       0.242500
     12 C12         -1.1180    -0.5810     0.8610 c6         1 519      -0.089400
     13 C13         -2.6020    -1.0270     0.8260 c6         1 519      -0.089400
     14 N14          0.7380     0.4080    -0.4530 nu         1 519      -0.909100
     15 C15          1.8860    -0.3650    -0.4000 ca         1 519       0.430900
     16 N16          1.7740    -1.6930    -0.5680 nb         1 519      -0.263000
     17 C17          2.9170    -2.3950    -0.5090 ca         1 519       0.200900
     18 C18          4.1570    -1.7710    -0.2850 ca         1 519      -0.306800
     19 C19          5.3770    -2.5560    -0.2260 cc         1 519      -0.050200
     20 C20          6.5390    -1.8550    -0.0030 cd         1 519      -0.317200
     21 C21          6.6280    -0.3930     0.1760 c          1 519       0.569200
     22 O22          7.7110     0.1400     0.3700 o          1 519      -0.539000
     23 N23          5.4070     0.3220     0.1080 n          1 519      -0.366300
     24 C24          5.4280     1.8150     0.2820 c3         1 519       0.106700
     25 C25          5.8420     2.2660     1.7020 c3         1 519      -0.100100
     26 C26          6.1580     2.5600    -0.8590 c3         1 519      -0.100100
     27 C27          4.1650    -0.3740    -0.1240 ca         1 519       0.318900
     28 N28          3.0120     0.3250    -0.1840 nb         1 519      -0.323000
     29 H011        -8.1930     1.5480    -1.5630 hc         1 519       0.041033
     30 H012        -8.9380    -0.0310    -1.8950 hc         1 519       0.041033
     31 H013        -9.9030     1.2790    -1.1790 hc         1 519       0.041033
     32 H021        -8.5050     1.2090     0.8830 h1         1 519       0.079700
     33 H033        -9.6030    -1.5690     0.1800 hc         1 519       0.041033
     34 H032        -9.2550    -0.9650     1.8160 hc         1 519       0.041033
     35 H031       -10.5390    -0.2140     0.8490 hc         1 519       0.041033
     36 H041        -7.1070    -1.2640     0.1180 hn         1 519       0.296500
     37 H071        -5.0770    -1.3450     0.1630 hn         1 519       0.298500
     38 H081        -3.4670     0.9550     1.0310 h1         1 519       0.083700
     39 H091        -3.1760    -0.2150    -1.8100 hc         1 519       0.049700
     40 H092        -3.6800     1.4250    -1.4170 hc         1 519       0.049700
     41 H102        -1.2560     1.3500    -2.0540 hc         1 519       0.052450
     42 H101        -1.4690     1.9300    -0.4030 hc         1 519       0.052450
     43 H111        -0.7120    -0.9260    -1.2490 h1         1 519       0.080700
     44 H122        -0.4930    -1.4190     1.1980 hc         1 519       0.052450
     45 H121        -0.9920     0.2200     1.6030 hc         1 519       0.052450
     46 H132        -2.9150    -1.3410     1.8310 hc         1 519       0.049700
     47 H131        -2.7060    -1.9080     0.1770 hc         1 519       0.049700
     48 H141         0.8900     1.4060    -0.3120 hn         1 519       0.504000
     49 H171         2.8370    -3.4730    -0.6430 h4         1 519       0.022100
     50 H191         5.3890    -3.6390    -0.3490 ha         1 519       0.187000
     51 H201         7.4940    -2.3630     0.0560 ha         1 519       0.210000
     52 H241         4.4020     2.1880     0.1980 h1         1 519       0.080700
     53 H251         6.9010     2.0660     1.8980 hc         1 519       0.046367
     54 H253         5.6760     3.3430     1.8240 hc         1 519       0.046367
     55 H252         5.2450     1.7430     2.4580 hc         1 519       0.046367
     56 H261         5.7750     2.2360    -1.8330 hc         1 519       0.046367
     57 H262         5.9960     3.6410    -0.7740 hc         1 519       0.046367
     58 H263         7.2390     2.3800    -0.8340 hc         1 519       0.046367
@<TRIPOS>BOND
     1     1     2 1   
     2     1    29 1   
     3     1    30 1   
     4     1    31 1   
     5     2     3 1   
     6     2     4 1   
     7     2    32 1   
     8     3    33 1   
     9     3    34 1   
    10     3    35 1   
    11     4     5 1   
    12     4    36 1   
    13     5     6 2   
    14     5     7 1   
    15     7     8 1   
    16     7    37 1   
    17     8     9 1   
    18     8    13 1   
    19     8    38 1   
    20     9    10 1   
    21     9    39 1   
    22     9    40 1   
    23    10    11 1   
    24    10    41 1   
    25    10    42 1   
    26    11    12 1   
    27    11    14 1   
    28    11    43 1   
    29    12    13 1   
    30    12    44 1   
    31    12    45 1   
    32    13    46 1   
    33    13    47 1   
    34    14    15 1   
    35    14    48 1   
    36    15    16 ar  
    37    15    28 ar  
    38    16    17 ar  
    39    17    18 ar  
    40    17    49 1   
    41    18    19 1   
    42    18    27 ar  
    43    19    20 2   
    44    19    50 1   
    45    20    21 1   
    46    20    51 1   
    47    21    22 2   
    48    21    23 1   
    49    23    24 1   
    50    23    27 1   
    51    24    25 1   
    52    24    26 1   
    53    24    52 1   
    54    25    53 1   
    55    25    54 1   
    56    25    55 1   
    57    26    56 1   
    58    26    57 1   
    59    26    58 1   
    60    27    28 ar  
@<TRIPOS>SUBSTRUCTURE
     1 519         1 TEMP              0 ****  ****    0 ROOT
