@<TRIPOS>MOLECULE
51B
   49    52     1     0     0
SMALL
No Charge or Current Charge


@<TRIPOS>ATOM
      1 N01         25.9910    36.9050    20.4550 nb         1 51B      -0.276000
      2 C02         27.2450    37.2190    20.8480 ca         1 51B       0.193300
      3 N03         27.8430    36.8250    21.9930 nb         1 51B      -0.233000
      4 C04         27.1240    36.0470    22.8270 ca         1 51B       0.240500
      5 C05         25.8100    35.6690    22.5000 ca         1 51B      -0.232000
      6 C06         25.2840    36.1300    21.2900 ca         1 51B       0.348300
      7 O07         24.0220    35.8030    20.9190 oh         1 51B      -0.641300
      8 C08         28.0750    38.1060    19.9110 c6         1 51B      -0.105000
      9 C09         27.4100    39.4910    19.6920 c6         1 51B       0.167800
     10 N10         28.2450    40.3700    18.8210 n3         1 51B      -0.729600
     11 C11         28.4950    39.7410    17.4960 c6         1 51B       0.166800
     12 C12         29.1860    38.3630    17.6400 c6         1 51B      -0.076400
     13 C13         28.3610    37.4220    18.5470 c6         1 51B      -0.062400
     14 C14         27.7620    35.6060    24.0630 cc         1 51B      -0.300500
     15 S15         29.0030    36.4940    24.9390 ss         1 51B       0.302000
     16 C16         29.1570    35.1600    26.0830 cc         1 51B      -0.257000
     17 C17         28.3250    34.1170    25.7520 cd         1 51B      -0.140000
     18 C18         27.5370    34.3600    24.5950 cd         1 51B      -0.099000
     19 C19         27.6980    41.7370    18.6890 c3         1 51B       0.243100
     20 C20         27.6420    42.4680    20.0170 ca         1 51B      -0.265300
     21 C21         26.4180    42.8200    20.6110 ca         1 51B       0.165900
     22 N22         26.3680    43.4640    21.7940 nb         1 51B      -0.244000
     23 C23         27.5480    43.7510    22.3700 ca         1 51B       0.374900
     24 N24         28.7730    43.4620    21.8890 nb         1 51B      -0.244000
     25 C25         28.8160    42.8170    20.7070 ca         1 51B       0.165900
     26 N26         27.4700    44.4160    23.5860 nu         1 51B      -0.932100
     27 C27         28.5900    44.8530    24.4420 c3         1 51B       0.230100
     28 H1          25.2140    35.0500    23.1620 ha         1 51B       0.148000
     29 H3          29.0460    38.2960    20.3910 hc         1 51B       0.085700
     30 H4          27.2580    39.9550    20.6770 h1         1 51B       0.045700
     31 H5          26.4140    39.3530    19.2450 h1         1 51B       0.045700
     32 H7          29.1350    40.3900    16.8800 h1         1 51B       0.030200
     33 H8          27.5470    39.6120    16.9520 h1         1 51B       0.030200
     34 H9          29.3190    37.9080    16.6490 hc         1 51B       0.047700
     35 H10         30.1910    38.5000    18.0610 hc         1 51B       0.047700
     36 H11         27.4170    37.1650    18.0460 hc         1 51B       0.050700
     37 H12         28.9030    36.4790    18.7020 hc         1 51B       0.050700
     38 H13         29.8590    35.2440    26.9030 h4         1 51B       0.145000
     39 H14         28.2800    33.1900    26.3180 ha         1 51B       0.135000
     40 H15         26.8440    33.6320    24.1830 ha         1 51B       0.134000
     41 H16         28.3260    42.3250    18.0060 h1         1 51B       0.037200
     42 H17         26.6920    41.7010    18.2480 h1         1 51B       0.037200
     43 H18         25.4650    42.5820    20.1410 h4         1 51B       0.023600
     44 H19         29.8030    42.5780    20.3120 h4         1 51B       0.023600
     45 H20         26.5210    44.6150    23.9130 hn         1 51B       0.504000
     46 H21         28.2130    45.3540    25.3440 h1         1 51B       0.042033
     47 H22         29.1970    43.9920    24.7530 h1         1 51B       0.042033
     48 H23         29.2370    45.5570    23.9010 h1         1 51B       0.042033
     49 H2          23.8710    36.2290    20.0480 ho         1 51B       0.489000
@<TRIPOS>BOND
     1     1     2 ar  
     2     1     6 ar  
     3     2     3 ar  
     4     2     8 1   
     5     3     4 ar  
     6     4     5 ar  
     7     4    14 1   
     8     5     6 ar  
     9     5    28 1   
    10     6     7 1   
    11     7    49 1   
    12     8     9 1   
    13     8    13 1   
    14     8    29 1   
    15     9    10 1   
    16     9    30 1   
    17     9    31 1   
    18    10    11 1   
    19    10    19 1   
    20    11    12 1   
    21    11    32 1   
    22    11    33 1   
    23    12    13 1   
    24    12    34 1   
    25    12    35 1   
    26    13    36 1   
    27    13    37 1   
    28    14    15 1   
    29    14    18 2   
    30    15    16 1   
    31    16    17 2   
    32    16    38 1   
    33    17    18 1   
    34    17    39 1   
    35    18    40 1   
    36    19    20 1   
    37    19    41 1   
    38    19    42 1   
    39    20    21 ar  
    40    20    25 ar  
    41    21    22 ar  
    42    21    43 1   
    43    22    23 ar  
    44    23    24 ar  
    45    23    26 1   
    46    24    25 ar  
    47    25    44 1   
    48    26    27 1   
    49    26    45 1   
    50    27    46 1   
    51    27    47 1   
    52    27    48 1   
@<TRIPOS>SUBSTRUCTURE
     1 51B         1 TEMP              0 ****  ****    0 ROOT
