@<TRIPOS>MOLECULE
51B
   49    52     1     0     0
SMALL
abcg2


@<TRIPOS>ATOM
      1 N01         27.0910    35.9030    19.9090 nb         1 51B      -0.276000
      2 C02         27.5800    37.0840    20.2940 ca         1 51B       0.193300
      3 N03         27.6890    37.4830    21.5580 nb         1 51B      -0.233000
      4 C04         27.2600    36.6590    22.5300 ca         1 51B       0.240500
      5 C05         26.7400    35.4050    22.2260 ca         1 51B      -0.232000
      6 C06         26.6880    35.0800    20.8750 ca         1 51B       0.348300
      7 O07         26.2020    33.8820    20.5140 oh         1 51B      -0.641300
      8 C08         28.0550    38.0800    19.2650 c6         1 51B      -0.105000
      9 C09         27.3300    39.4120    19.4790 c6         1 51B       0.167800
     10 N10         27.9250    40.4550    18.6570 n3         1 51B      -0.729600
     11 C11         27.7910    40.1340    17.2380 c6         1 51B       0.166800
     12 C12         28.4570    38.7980    16.9140 c6         1 51B      -0.076400
     13 C13         27.9390    37.6630    17.8040 c6         1 51B      -0.062400
     14 C14         27.3610    37.1770    23.8860 cc         1 51B      -0.300500
     15 S15         27.9010    38.8110    24.1250 ss         1 51B       0.302000
     16 C16         27.7260    38.6730    25.8250 cc         1 51B      -0.257000
     17 C17         27.2760    37.4340    26.1970 cd         1 51B      -0.140000
     18 C18         27.0650    36.5780    25.0880 cd         1 51B      -0.099000
     19 C19         27.3920    41.7840    18.9780 c3         1 51B       0.243100
     20 C20         27.5870    42.1040    20.4320 ca         1 51B      -0.265300
     21 C21         26.5260    42.1910    21.3300 ca         1 51B       0.165900
     22 N22         26.6820    42.3230    22.6410 nb         1 51B      -0.244000
     23 C23         27.9530    42.3560    23.0950 ca         1 51B       0.374900
     24 N24         29.0520    42.3350    22.3160 nb         1 51B      -0.244000
     25 C25         28.8480    42.2090    21.0070 ca         1 51B       0.165900
     26 N26         28.1200    42.4160    24.4340 nu         1 51B      -0.932100
     27 C27         29.4050    42.3170    25.0940 c3         1 51B       0.230100
     28 H1          26.3840    34.7180    22.9780 ha         1 51B       0.148000
     29 H3          29.1120    38.2650    19.4940 hc         1 51B       0.085700
     30 H4          27.4080    39.6910    20.5240 h1         1 51B       0.045700
     31 H5          26.2560    39.2810    19.2490 h1         1 51B       0.045700
     32 H7          28.2500    40.9360    16.6570 h1         1 51B       0.030200
     33 H8          26.7240    40.0910    16.9520 h1         1 51B       0.030200
     34 H9          28.2870    38.5600    15.8610 hc         1 51B       0.047700
     35 H10         29.5370    38.9010    17.0520 hc         1 51B       0.047700
     36 H11         26.8900    37.4560    17.5710 hc         1 51B       0.050700
     37 H12         28.4960    36.7450    17.6140 hc         1 51B       0.050700
     38 H13         27.9640    39.5120    26.4600 h4         1 51B       0.145000
     39 H14         27.1030    37.1450    27.2240 ha         1 51B       0.135000
     40 H15         26.7090    35.5610    25.1730 ha         1 51B       0.134000
     41 H16         27.9150    42.5050    18.3450 h1         1 51B       0.037200
     42 H17         26.3190    41.8590    18.7340 h1         1 51B       0.037200
     43 H18         25.5030    42.1370    20.9680 h4         1 51B       0.023600
     44 H19         29.7360    42.1710    20.3830 h4         1 51B       0.023600
     45 H20         27.2820    42.3420    24.9860 hn         1 51B       0.504000
     46 H21         29.2360    42.3490    26.1680 h1         1 51B       0.042033
     47 H22         29.9160    41.3820    24.8460 h1         1 51B       0.042033
     48 H23         30.0580    43.1460    24.8150 h1         1 51B       0.042033
     49 H2          26.2290    33.8220    19.5450 ho         1 51B       0.489000
@<TRIPOS>BOND
     1     1     2 ar  
     2     1     6 ar  
     3     2     3 ar  
     4     2     8 1   
     5     3     4 ar  
     6     4     5 ar  
     7     4    14 1   
     8     5     6 ar  
     9     5    28 1   
    10     6     7 1   
    11     7    49 1   
    12     8     9 1   
    13     8    13 1   
    14     8    29 1   
    15     9    10 1   
    16     9    30 1   
    17     9    31 1   
    18    10    11 1   
    19    10    19 1   
    20    11    12 1   
    21    11    32 1   
    22    11    33 1   
    23    12    13 1   
    24    12    34 1   
    25    12    35 1   
    26    13    36 1   
    27    13    37 1   
    28    14    15 1   
    29    14    18 2   
    30    15    16 1   
    31    16    17 2   
    32    16    38 1   
    33    17    18 1   
    34    17    39 1   
    35    18    40 1   
    36    19    20 1   
    37    19    41 1   
    38    19    42 1   
    39    20    21 ar  
    40    20    25 ar  
    41    21    22 ar  
    42    21    43 1   
    43    22    23 ar  
    44    23    24 ar  
    45    23    26 1   
    46    24    25 ar  
    47    25    44 1   
    48    26    27 1   
    49    26    45 1   
    50    27    46 1   
    51    27    47 1   
    52    27    48 1   
@<TRIPOS>SUBSTRUCTURE
     1 51B         1 TEMP              0 ****  ****    0 ROOT
