@<TRIPOS>MOLECULE
51C
   48    48     1     0     0
SMALL
No Charge or Current Charge


@<TRIPOS>ATOM
      1 O3          -5.1360     1.0100    -0.9570 oh         1 51C      -0.729000
      2 C4           4.0290    -0.3230    -0.3510 c3         1 51C      -0.073400
      3 C5           2.8300     0.1910     0.4770 c3         1 51C      -0.080400
      4 O4          -2.9830     2.8330    -0.4940 oh         1 51C      -0.647000
      5 C6           1.4700    -0.1370    -0.1690 c3         1 51C       0.164600
      6 C7          -0.9250     0.2720     0.2140 c3         1 51C       0.144300
      7 C8          -1.3800    -1.2080     0.4210 c3         1 51C       0.127600
      8 C9          -3.8250    -0.8670     0.0730 c3         1 51C       0.146300
      9 O5          -1.1590     2.5120     1.3020 oh         1 51C      -0.681000
     10 C10         -4.9890    -1.7890    -0.4070 c3         1 51C       0.164600
     11 C11         -3.8140     0.5550    -0.5820 c3         1 51C       0.103300
     12 C12         -3.1690     1.6500     0.3150 c3         1 51C       0.130300
     13 C13         -1.8270     1.2690     1.0160 c3         1 51C       0.188300
     14 O2          -4.9550    -3.0700     0.2540 oh         1 51C      -0.705000
     15 O1          -2.5890    -1.5270    -0.3080 os         1 51C      -0.441000
     16 O            0.4440     0.3980     0.6880 os         1 51C      -0.442000
     17 C3           5.3930     0.0050     0.2940 c3         1 51C      -0.074400
     18 C2           6.5920    -0.5090    -0.5340 c3         1 51C      -0.075400
     19 C1           7.9560    -0.1820     0.1110 c3         1 51C      -0.074400
     20 C            9.1520    -0.6950    -0.7150 c3         1 51C      -0.088100
     21 H25         -5.3560     0.6170    -1.8350 ho         1 51C       0.510000
     22 H15          3.9400    -1.4100    -0.4760 hc         1 51C       0.037200
     23 H14          3.9890     0.1190    -1.3550 hc         1 51C       0.037200
     24 H17          2.8650    -0.2530     1.4790 hc         1 51C       0.053200
     25 H16          2.9140     1.2780     0.6000 hc         1 51C       0.053200
     26 H26         -3.8270     2.9380    -0.9930 ho         1 51C       0.451000
     27 H19          1.4190     0.3200    -1.1660 h1         1 51C       0.021200
     28 H18          1.3780    -1.2240    -0.2790 h1         1 51C       0.021200
     29 H           -0.9720     0.5260    -0.8540 h1         1 51C       0.062700
     30 H21         -0.5870    -1.8830     0.0790 h1         1 51C       0.059200
     31 H20         -1.5160    -1.4020     1.4930 h1         1 51C       0.059200
     32 H1          -3.9040    -0.7710     1.1650 h1         1 51C       0.058700
     33 H27         -1.5720     3.1220     0.6390 ho         1 51C       0.503000
     34 H23         -5.9490    -1.3000    -0.1950 h1         1 51C       0.027700
     35 H22         -4.9160    -1.9210    -1.4960 h1         1 51C       0.027700
     36 H2          -3.2050     0.4770    -1.4950 h1         1 51C       0.058700
     37 H3          -3.8850     1.8750     1.1180 h1         1 51C       0.042700
     38 H4          -2.0790     0.7810     1.9670 h1         1 51C       0.035700
     39 H24         -5.6650    -3.6220    -0.1510 ho         1 51C       0.502000
     40 H12          5.4810     1.0910     0.4190 hc         1 51C       0.038700
     41 H13          5.4330    -0.4380     1.2970 hc         1 51C       0.038700
     42 H10          6.5040    -1.5960    -0.6590 hc         1 51C       0.037200
     43 H11          6.5520    -0.0670    -1.5370 hc         1 51C       0.037200
     44 H8           8.0490     0.9040     0.2350 hc         1 51C       0.036700
     45 H9           8.0000    -0.6240     1.1140 hc         1 51C       0.036700
     46 H7           9.1560    -0.2430    -1.7140 hc         1 51C       0.031033
     47 H5          10.0960    -0.4400    -0.2190 hc         1 51C       0.031033
     48 H6           9.1070    -1.7850    -0.8270 hc         1 51C       0.031033
@<TRIPOS>BOND
     1     1    11 1   
     2     1    21 1   
     3     2     3 1   
     4     2    17 1   
     5     2    22 1   
     6     2    23 1   
     7     3     5 1   
     8     3    24 1   
     9     3    25 1   
    10     4    12 1   
    11     4    26 1   
    12     5    16 1   
    13     5    27 1   
    14     5    28 1   
    15     6     7 1   
    16     6    13 1   
    17     6    16 1   
    18     6    29 1   
    19     7    15 1   
    20     7    30 1   
    21     7    31 1   
    22     8    10 1   
    23     8    11 1   
    24     8    15 1   
    25     8    32 1   
    26     9    13 1   
    27     9    33 1   
    28    10    14 1   
    29    10    34 1   
    30    10    35 1   
    31    11    12 1   
    32    11    36 1   
    33    12    13 1   
    34    12    37 1   
    35    13    38 1   
    36    14    39 1   
    37    17    18 1   
    38    17    40 1   
    39    17    41 1   
    40    18    19 1   
    41    18    42 1   
    42    18    43 1   
    43    19    20 1   
    44    19    44 1   
    45    19    45 1   
    46    20    46 1   
    47    20    47 1   
    48    20    48 1   
@<TRIPOS>SUBSTRUCTURE
     1 51C         1 TEMP              0 ****  ****    0 ROOT
