@<TRIPOS>MOLECULE
51C
   48    48     1     0     0
SMALL
abcg2


@<TRIPOS>ATOM
      1 O3          -5.1230     0.9460    -0.8640 oh         1 51C      -0.729000
      2 C4           3.9800    -0.2020    -0.3820 c3         1 51C      -0.073400
      3 C5           2.7790     0.0560     0.5190 c3         1 51C      -0.080400
      4 O4          -2.6780     2.5360    -1.0790 oh         1 51C      -0.647000
      5 C6           1.4700    -0.0120    -0.2390 c3         1 51C       0.164600
      6 C7          -0.8710     0.2090     0.0710 c3         1 51C       0.144300
      7 C8          -1.3920    -1.2070     0.3590 c3         1 51C       0.127600
      8 C9          -3.7480    -0.8590     0.1350 c3         1 51C       0.146300
      9 O5          -0.9840     2.4300     0.9320 oh         1 51C      -0.681000
     10 C10         -4.9430    -1.7540    -0.1330 c3         1 51C       0.164600
     11 C11         -3.8110     0.4510    -0.6740 c3         1 51C       0.103300
     12 C12         -3.0300     1.6210    -0.0660 c3         1 51C       0.130300
     13 C13         -1.7570     1.2750     0.7290 c3         1 51C       0.188300
     14 O2          -4.7760    -2.9480     0.5940 oh         1 51C      -0.705000
     15 O1          -2.5930    -1.5630    -0.2700 os         1 51C      -0.441000
     16 O            0.4120     0.2890     0.6440 os         1 51C      -0.442000
     17 C3           5.3030    -0.1510     0.3730 c3         1 51C      -0.074400
     18 C2           6.5160    -0.3770    -0.5200 c3         1 51C      -0.075400
     19 C1           7.8370    -0.3340     0.2390 c3         1 51C      -0.074400
     20 C            9.0450    -0.5450    -0.6620 c3         1 51C      -0.088100
     21 H25         -5.5220     0.4970    -1.6150 ho         1 51C       0.510000
     22 H15          3.8770    -1.1800    -0.8650 hc         1 51C       0.037200
     23 H14          3.9960     0.5360    -1.1910 hc         1 51C       0.037200
     24 H17          2.7660    -0.6750     1.3330 hc         1 51C       0.053200
     25 H16          2.8760     1.0430     0.9830 hc         1 51C       0.053200
     26 H26         -3.4880     2.8000    -1.5270 ho         1 51C       0.451000
     27 H19          1.4800     0.7020    -1.0750 h1         1 51C       0.021200
     28 H18          1.3510    -1.0120    -0.6800 h1         1 51C       0.021200
     29 H           -0.8180     0.3810    -1.0140 h1         1 51C       0.062700
     30 H21         -0.6500    -1.9280     0.0110 h1         1 51C       0.059200
     31 H20         -1.4750    -1.3230     1.4500 h1         1 51C       0.059200
     32 H1          -3.7160    -0.6580     1.2170 h1         1 51C       0.058700
     33 H27         -1.5660     3.1340     1.2360 ho         1 51C       0.503000
     34 H23         -5.8490    -1.2230     0.1760 h1         1 51C       0.027700
     35 H22         -5.0290    -1.9460    -1.2130 h1         1 51C       0.027700
     36 H2          -3.3580     0.2160    -1.6470 h1         1 51C       0.058700
     37 H3          -3.7090     2.1010     0.6580 h1         1 51C       0.042700
     38 H4          -2.0910     0.8750     1.6990 h1         1 51C       0.035700
     39 H24         -5.6120    -3.4210     0.5800 ho         1 51C       0.502000
     40 H12          5.3970     0.8190     0.8730 hc         1 51C       0.038700
     41 H13          5.2930    -0.9030     1.1700 hc         1 51C       0.038700
     42 H10          6.4220    -1.3440    -1.0270 hc         1 51C       0.037200
     43 H11          6.5300     0.3790    -1.3130 hc         1 51C       0.037200
     44 H8           7.9260     0.6280     0.7530 hc         1 51C       0.036700
     45 H9           7.8270    -1.0960     1.0240 hc         1 51C       0.036700
     46 H7           9.1030     0.2250    -1.4340 hc         1 51C       0.031033
     47 H5           9.9780    -0.5170    -0.0980 hc         1 51C       0.031033
     48 H6           8.9960    -1.5120    -1.1670 hc         1 51C       0.031033
@<TRIPOS>BOND
     1     1    11 1   
     2     1    21 1   
     3     2     3 1   
     4     2    17 1   
     5     2    22 1   
     6     2    23 1   
     7     3     5 1   
     8     3    24 1   
     9     3    25 1   
    10     4    12 1   
    11     4    26 1   
    12     5    16 1   
    13     5    27 1   
    14     5    28 1   
    15     6     7 1   
    16     6    13 1   
    17     6    16 1   
    18     6    29 1   
    19     7    15 1   
    20     7    30 1   
    21     7    31 1   
    22     8    10 1   
    23     8    11 1   
    24     8    15 1   
    25     8    32 1   
    26     9    13 1   
    27     9    33 1   
    28    10    14 1   
    29    10    34 1   
    30    10    35 1   
    31    11    12 1   
    32    11    36 1   
    33    12    13 1   
    34    12    37 1   
    35    13    38 1   
    36    14    39 1   
    37    17    18 1   
    38    17    40 1   
    39    17    41 1   
    40    18    19 1   
    41    18    42 1   
    42    18    43 1   
    43    19    20 1   
    44    19    44 1   
    45    19    45 1   
    46    20    46 1   
    47    20    47 1   
    48    20    48 1   
@<TRIPOS>SUBSTRUCTURE
     1 51C         1 TEMP              0 ****  ****    0 ROOT
