@<TRIPOS>MOLECULE
51D
   28    30     1     0     0
SMALL
bcc


@<TRIPOS>ATOM
      1 C2           2.0350    -0.7040     0.4920 ca         1 51D       0.211900
      2 C3           3.2890    -0.1230     0.6080 ca         1 51D      -0.046600
      3 C4           3.4920     1.1750     0.1810 ca         1 51D      -0.046000
      4 C5           2.4190     1.8840    -0.3500 ca         1 51D      -0.029000
      5 C6           1.1620     1.2970    -0.4630 ca         1 51D      -0.045000
      6 C7           0.9580    -0.0120    -0.0490 cp         1 51D      -0.197500
      7 C8          -0.3700    -0.6410    -0.2040 cp         1 51D       0.508800
      8 C9          -1.5170     0.0660     0.1090 ca         1 51D      -0.339600
      9 C10         -2.7170    -0.5960    -0.1300 ca         1 51D       0.568800
     10 C12         -1.6050    -2.4110    -0.8550 ca         1 51D       0.681900
     11 F1           1.8730    -1.9380     0.9400 f          1 51D      -0.097900
     12 N11         -2.7660    -1.8260    -0.6070 nb         1 51D      -0.744000
     13 N13         -0.4080    -1.8860    -0.6830 nb         1 51D      -0.697000
     14 N14         -3.9370     0.0140     0.1280 na         1 51D       0.044600
     15 C15         -5.1780    -0.5160    -0.0560 cc         1 51D      -0.083300
     16 C16         -6.0660     0.4470     0.3230 cd         1 51D      -0.312300
     17 C17         -5.2600     1.5380     0.7240 cd         1 51D       0.331200
     18 N18         -3.9840     1.2660     0.6020 nc         1 51D      -0.519800
     19 C19          2.6150     3.2250    -0.7940 cg         1 51D       0.229800
     20 N20          2.7720     4.3090    -1.1510 n1         1 51D      -0.342800
     21 CL           4.5740    -1.0330     1.2890 cl         1 51D      -0.055400
     22 H1           4.4730     1.6200     0.2560 ha         1 51D       0.165000
     23 H2           0.3450     1.8560    -0.8980 ha         1 51D       0.158000
     24 H3          -1.4860     1.0640     0.5180 ha         1 51D       0.185000
     25 H4          -1.6470    -3.4220    -1.2430 h5         1 51D       0.060100
     26 H5          -5.3210    -1.5140    -0.4330 h4         1 51D       0.196000
     27 H6          -7.1410     0.3860     0.3150 ha         1 51D       0.171000
     28 H7          -5.5770     2.5010     1.0930 h4         1 51D       0.044100
@<TRIPOS>BOND
     1     1     2 ar  
     2     1     6 ar  
     3     1    11 1   
     4     2     3 ar  
     5     2    21 1   
     6     3     4 ar  
     7     3    22 1   
     8     4     5 ar  
     9     4    19 1   
    10     5     6 ar  
    11     5    23 1   
    12     6     7 1   
    13     7     8 ar  
    14     7    13 ar  
    15     8     9 ar  
    16     8    24 1   
    17     9    12 ar  
    18     9    14 1   
    19    10    12 ar  
    20    10    13 ar  
    21    10    25 1   
    22    14    15 1   
    23    14    18 1   
    24    15    16 2   
    25    15    26 1   
    26    16    17 1   
    27    16    27 1   
    28    17    18 2   
    29    17    28 1   
    30    19    20 3   
@<TRIPOS>SUBSTRUCTURE
     1 51D         1 TEMP              0 ****  ****    0 ROOT
