@<TRIPOS>MOLECULE
51D
   28    30     1     0     0
SMALL
No Charge or Current Charge


@<TRIPOS>ATOM
      1 C2           2.1260    -0.7280     0.4950 ca         1 51D       0.247000
      2 C3           3.3710    -0.0710     0.5650 ca         1 51D       0.045000
      3 C4           3.5030     1.2470     0.1010 ca         1 51D      -0.028000
      4 C5           2.3880     1.9180    -0.4330 ca         1 51D      -0.029000
      5 C6           1.1430     1.2640    -0.5020 ca         1 51D      -0.027000
      6 C7           0.9820    -0.0710    -0.0440 cp         1 51D      -0.197500
      7 C8          -0.3570    -0.7370    -0.1380 cp         1 51D       0.180500
      8 C9          -1.5630    -0.0300     0.0830 ca         1 51D      -0.191000
      9 C10         -2.8030    -0.7010    -0.0440 ca         1 51D       0.240500
     10 C12         -1.6120    -2.6120    -0.5820 ca         1 51D       0.155900
     11 F1           2.0310    -1.9870     0.9820 f          1 51D      -0.133000
     12 N11         -2.8030    -2.0110    -0.3860 nb         1 51D      -0.218000
     13 N13         -0.3990    -2.0390    -0.4740 nb         1 51D      -0.171000
     14 N14         -3.9810     0.0300     0.1860 na         1 51D       0.095300
     15 C15         -5.1540    -0.1840    -0.5280 cc         1 51D      -0.116000
     16 C16         -6.0140     0.6950     0.0700 cd         1 51D      -0.229000
     17 C17         -5.3120     1.3630     1.1010 cd         1 51D       0.265900
     18 N18         -4.0560     0.9650     1.2020 nc         1 51D      -0.519800
     19 C19          2.5220     3.2670    -0.9100 cg         1 51D       0.319000
     20 N20          2.6400     4.3620    -1.2960 n1         1 51D      -0.432000
     21 Cl           4.7820    -0.8870     1.2410 cl         1 51D      -0.147000
     22 H1           4.4690     1.7440     0.1590 ha         1 51D       0.147000
     23 H2           0.2940     1.7920    -0.9320 ha         1 51D       0.140000
     24 H3          -1.5360     1.0200     0.3570 ha         1 51D       0.167000
     25 H4          -1.6330    -3.6650    -0.8550 h5         1 51D       0.060100
     26 H5          -5.2610    -0.8920    -1.3410 h4         1 51D       0.178000
     27 H6          -7.0550     0.8530    -0.1940 ha         1 51D       0.153000
     28 H7          -5.6870     2.1210     1.7790 h4         1 51D       0.044100
@<TRIPOS>BOND
     1     1     2 ar  
     2     1     6 ar  
     3     1    11 1   
     4     2     3 ar  
     5     2    21 1   
     6     3     4 ar  
     7     3    22 1   
     8     4     5 ar  
     9     4    19 1   
    10     5     6 ar  
    11     5    23 1   
    12     6     7 1   
    13     7     8 ar  
    14     7    13 ar  
    15     8     9 ar  
    16     8    24 1   
    17     9    12 ar  
    18     9    14 1   
    19    10    12 ar  
    20    10    13 ar  
    21    10    25 1   
    22    14    15 1   
    23    14    18 1   
    24    15    16 2   
    25    15    26 1   
    26    16    17 1   
    27    16    27 1   
    28    17    18 2   
    29    17    28 1   
    30    19    20 3   
@<TRIPOS>SUBSTRUCTURE
     1 51D         1 TEMP              0 ****  ****    0 ROOT
