@<TRIPOS>MOLECULE
51E
   30    32     1     0     0
SMALL
No Charge or Current Charge


@<TRIPOS>ATOM
      1 C01          2.1010     0.9650    -0.3900 ca         1 51E      -0.065000
      2 C02          3.3550     1.5940    -0.3380 ca         1 51E       0.102000
      3 C03          4.5000     0.8650     0.0120 ca         1 51E      -0.053000
      4 C04          4.3920    -0.5050     0.3110 ca         1 51E      -0.015000
      5 C6           3.1330    -1.1370     0.2570 ca         1 51E      -0.029000
      6 C7           1.9560    -0.4160    -0.0900 cp         1 51E      -0.150500
      7 C8           0.6150    -1.0950    -0.1460 cp         1 51E       0.171500
      8 C9          -0.6130    -0.3970    -0.0310 ca         1 51E      -0.167000
      9 C10         -1.8400    -1.1130    -0.0950 cp         1 51E       0.073000
     10 N11         -1.8060    -2.4530    -0.2640 nb         1 51E      -0.183000
     11 C12         -0.5990    -3.0470    -0.3560 ca         1 51E       0.133900
     12 N13          0.6010    -2.4350    -0.3020 nb         1 51E      -0.182000
     13 C19          5.5620    -1.2580     0.6690 cg         1 51E       0.319000
     14 N20          6.5120    -1.8750     0.9530 n1         1 51E      -0.438000
     15 Cl           3.4930     3.3060    -0.7210 cl         1 51E      -0.181000
     16 C1          -5.6390     0.8670     0.2510 ca         1 51E       0.135000
     17 C2          -5.6480    -0.5240     0.0790 ca         1 51E      -0.127000
     18 C3          -4.4100    -1.1860    -0.0360 ca         1 51E      -0.083000
     19 C4          -3.1920    -0.4470     0.0240 cp         1 51E       0.260000
     20 N1          -3.2080     0.9020     0.1900 nb         1 51E      -0.649000
     21 C5          -4.4020     1.5410     0.3010 ca         1 51E       0.304900
     22 H1           1.2410     1.5610    -0.6840 ha         1 51E       0.137000
     23 H2           5.4660     1.3630     0.0490 ha         1 51E       0.144000
     24 H3           3.0700    -2.1970     0.4980 ha         1 51E       0.155000
     25 H4          -0.6220     0.6770     0.1220 ha         1 51E       0.158000
     26 H5          -0.5920    -4.1270    -0.4870 h5         1 51E       0.055100
     27 H6          -6.5850    -1.0730     0.0360 ha         1 51E       0.143000
     28 H7          -4.3950    -2.2640    -0.1690 ha         1 51E       0.153000
     29 H8          -4.3660     2.6210     0.4340 h4         1 51E       0.041100
     30 F1          -6.8030     1.5480     0.3660 f          1 51E      -0.162000
@<TRIPOS>BOND
     1     1     2 ar  
     2     1     6 ar  
     3     1    22 1   
     4     2     3 ar  
     5     2    15 1   
     6     3     4 ar  
     7     3    23 1   
     8     4     5 ar  
     9     4    13 1   
    10     5     6 ar  
    11     5    24 1   
    12     6     7 1   
    13     7     8 ar  
    14     7    12 ar  
    15     8     9 ar  
    16     8    25 1   
    17     9    10 ar  
    18     9    19 1   
    19    10    11 ar  
    20    11    12 ar  
    21    11    26 1   
    22    13    14 3   
    23    16    17 ar  
    24    16    21 ar  
    25    16    30 1   
    26    17    18 ar  
    27    17    27 1   
    28    18    19 ar  
    29    18    28 1   
    30    19    20 ar  
    31    20    21 ar  
    32    21    29 1   
@<TRIPOS>SUBSTRUCTURE
     1 51E         1 TEMP              0 ****  ****    0 ROOT
