@<TRIPOS>MOLECULE
51F
   19    19     1     0     0
SMALL
bcc


@<TRIPOS>ATOM
      1 OAB          3.3580    -0.1630     0.0200 oh         1 51F      -0.598800
      2 CAE          2.0400    -0.2670     0.5000 c3         1 51F       0.119400
      3 CAF          1.1130    -0.1770    -0.7020 c3         1 51F       0.036300
      4 NAI         -0.2740    -0.2910    -0.3090 na         1 51F      -0.192900
      5 CAD         -0.9530    -1.4640    -0.1060 cc         1 51F      -0.266600
      6 CAC         -2.1960    -1.0980     0.3130 cd         1 51F       0.300200
      7 NAG         -2.2890     0.2640     0.3760 nd         1 51F      -0.675000
      8 CAH         -1.1190     0.7230     0.0010 cc         1 51F       0.405800
      9 CAA         -0.7420     2.1580    -0.0920 c3         1 51F      -0.122400
     10 H1           3.9590    -0.2420     0.7660 ho         1 51F       0.414000
     11 H2           1.8650    -1.2170     1.0200 h1         1 51F       0.031200
     12 H3           1.7970     0.5350     1.2090 h1         1 51F       0.031200
     13 H4           1.2540     0.7730    -1.2190 h1         1 51F       0.072700
     14 H5           1.3380    -0.9720    -1.4130 h1         1 51F       0.072700
     15 H6          -0.5020    -2.4260    -0.2850 h4         1 51F       0.173000
     16 H7          -3.0250    -1.7400     0.5670 h4         1 51F       0.037100
     17 H8          -0.4490     2.4380    -1.1050 hc         1 51F       0.053700
     18 H9          -1.5920     2.7720     0.1950 hc         1 51F       0.053700
     19 H10          0.0900     2.4080     0.5690 hc         1 51F       0.053700
@<TRIPOS>BOND
     1     1     2 1   
     2     1    10 1   
     3     2     3 1   
     4     2    11 1   
     5     2    12 1   
     6     3     4 1   
     7     3    13 1   
     8     3    14 1   
     9     4     5 1   
    10     4     8 1   
    11     5     6 2   
    12     5    15 1   
    13     6     7 1   
    14     6    16 1   
    15     7     8 2   
    16     8     9 1   
    17     9    17 1   
    18     9    18 1   
    19     9    19 1   
@<TRIPOS>SUBSTRUCTURE
     1 51F         1 TEMP              0 ****  ****    0 ROOT
