@<TRIPOS>MOLECULE
51F
   19    19     1     0     0
SMALL
No Charge or Current Charge


@<TRIPOS>ATOM
      1 OAB          3.4510    -0.1310     0.0120 oh         1 51F      -0.661000
      2 CAE          2.0990    -0.2290     0.4820 c3         1 51F       0.142600
      3 CAF          1.1220    -0.2410    -0.7110 c3         1 51F       0.065600
      4 NAI         -0.2910    -0.3300    -0.2960 na         1 51F      -0.171500
      5 CAD         -1.0140    -1.4920    -0.1320 cc         1 51F      -0.234000
      6 CAC         -2.2660    -1.0960     0.2620 cd         1 51F       0.234900
      7 NAG         -2.3350     0.2790     0.3470 nd         1 51F      -0.675000
      8 CAH         -1.1360     0.7230     0.0070 cc         1 51F       0.405800
      9 CAA         -0.7510     2.1750    -0.0400 c3         1 51F      -0.122400
     10 H1           4.0340    -0.1370     0.8060 ho         1 51F       0.453000
     11 H2           1.9630    -1.1500     1.0660 h1         1 51F       0.031200
     12 H3           1.8600     0.6210     1.1350 h1         1 51F       0.031200
     13 H4           1.2640     0.6690    -1.3080 h1         1 51F       0.072700
     14 H5           1.3510    -1.1000    -1.3540 h1         1 51F       0.072700
     15 H6          -0.6060    -2.4810    -0.3000 h4         1 51F       0.155000
     16 H7          -3.1190    -1.7240     0.4900 h4         1 51F       0.037100
     17 H8          -0.4800     2.4700    -1.0600 hc         1 51F       0.053700
     18 H9          -1.5780     2.8140     0.2870 hc         1 51F       0.053700
     19 H10          0.1060     2.3720     0.6130 hc         1 51F       0.053700
@<TRIPOS>BOND
     1     1     2 1   
     2     1    10 1   
     3     2     3 1   
     4     2    11 1   
     5     2    12 1   
     6     3     4 1   
     7     3    13 1   
     8     3    14 1   
     9     4     5 1   
    10     4     8 1   
    11     5     6 2   
    12     5    15 1   
    13     6     7 1   
    14     6    16 1   
    15     7     8 2   
    16     8     9 1   
    17     9    17 1   
    18     9    18 1   
    19     9    19 1   
@<TRIPOS>SUBSTRUCTURE
     1 51F         1 TEMP              0 ****  ****    0 ROOT
