@<TRIPOS>MOLECULE
51G
   76    78     1     0     0
SMALL
abcg2


@<TRIPOS>ATOM
      1 O6         -12.1960    -7.9220     4.4920 oh         1 51G      -0.708000
      2 C14        -11.6160    -8.4230     3.2920 c6         1 51G       0.144300
      3 C15        -10.8420    -9.6930     3.6310 c6         1 51G       0.146500
      4 N          -11.7660   -10.7020     4.1580 n7         1 51G      -0.884400
      5 C19        -11.2860   -11.4310     5.3330 c3         1 51G       0.149100
      6 C16        -10.1410   -10.2330     2.3550 c6         1 51G       0.157000
      7 C18         -9.1380   -11.3420     2.6730 c3         1 51G      -0.109100
      8 O5         -11.1500   -10.7370     1.4720 oh         1 51G      -0.722000
      9 C17         -9.4050    -9.1140     1.6340 c6         1 51G       0.157600
     10 O4         -10.2130    -7.9500     1.4030 os         1 51G      -0.476000
     11 C13        -10.7320    -7.3800     2.6070 c6         1 51G       0.353300
     12 O3          -9.7190    -6.9630     3.4680 os         1 51G      -0.466000
     13 C11         -9.2120    -5.6250     3.3370 c6         1 51G       0.154300
     14 C10         -8.7610    -5.1690     4.7210 c6         1 51G       0.158500
     15 N1          -9.9010    -5.1410     5.6440 n8         1 51G      -0.973200
     16 C9          -8.0470    -3.8250     4.6080 c6         1 51G      -0.115400
     17 C8          -6.8400    -3.8550     3.6790 c6         1 51G       0.142500
     18 N2          -6.2430    -2.5150     3.6450 n8         1 51G      -1.022200
     19 C12         -8.0750    -5.5940     2.3040 c6         1 51G       0.153300
     20 O2          -8.5790    -5.7910     0.9870 oh         1 51G      -0.726000
     21 C7          -7.2760    -4.2910     2.2790 c6         1 51G       0.196300
     22 O1          -6.1720    -4.5590     1.4040 os         1 51G      -0.465000
     23 C6          -5.5130    -3.4810     0.7930 c6         1 51G       0.393300
     24 C5          -5.1490    -3.8090    -0.6600 c6         1 51G       0.145500
     25 N3          -6.3420    -4.1180    -1.4500 n8         1 51G      -0.978200
     26 C4          -4.1410    -4.9520    -0.7050 c6         1 51G      -0.071400
     27 C3          -2.9170    -4.5920     0.1390 c6         1 51G      -0.099400
     28 O           -4.3250    -3.1390     1.4980 os         1 51G      -0.502000
     29 C2          -3.3430    -4.1980     1.5470 c6         1 51G       0.170300
     30 C1          -2.2060    -3.7380     2.4590 c3         1 51G       0.176500
     31 C           -1.5290    -2.4500     1.9790 c3         1 51G      -0.121100
     32 N4          -2.7040    -3.6680     3.8400 n7         1 51G      -0.869400
     33 C20         -1.6650    -3.5590     4.8590 c3         1 51G       0.148100
     34 H1         -12.8840    -7.2860     4.2600 ho         1 51G       0.505000
     35 H2         -12.4030    -8.6770     2.5750 h1         1 51G       0.061700
     36 H3         -10.0760    -9.4380     4.3710 h1         1 51G       0.074700
     37 H4         -12.6320   -10.2410     4.4090 hn         1 51G       0.425000
     38 H6         -12.0870   -12.0700     5.7040 h1         1 51G       0.034033
     39 H7         -10.4410   -12.0670     5.0730 h1         1 51G       0.034033
     40 H8         -10.9690   -10.7610     6.1440 h1         1 51G       0.034033
     41 H9          -8.4050   -11.0160     3.4130 hc         1 51G       0.044700
     42 H10         -9.6560   -12.2190     3.0580 hc         1 51G       0.044700
     43 H11         -8.6110   -11.6340     1.7620 hc         1 51G       0.044700
     44 H12        -11.7770   -11.1910     2.0630 ho         1 51G       0.524000
     45 H13         -9.0940    -9.4560     0.6480 h1         1 51G       0.066200
     46 H14         -8.5180    -8.8360     2.2080 h1         1 51G       0.066200
     47 H15        -11.3340    -6.5290     2.2790 h2         1 51G       0.066700
     48 H16        -10.0220    -4.9730     2.9870 h1         1 51G       0.044700
     49 H17         -8.0560    -5.9160     5.1000 h1         1 51G       0.076700
     50 H18         -9.5710    -4.8870     6.5700 hn         1 51G       0.390000
     51 H19        -10.5410    -4.4020     5.3640 hn         1 51G       0.390000
     52 H21         -7.7240    -3.5110     5.6040 hc         1 51G       0.049200
     53 H22         -8.7560    -3.0690     4.2510 hc         1 51G       0.049200
     54 H23         -6.1310    -4.6120     4.0470 h1         1 51G       0.039700
     55 H24         -6.0070    -2.2340     4.5920 hn         1 51G       0.410000
     56 H25         -5.3720    -2.5410     3.1230 hn         1 51G       0.410000
     57 H27         -7.3800    -6.4020     2.5660 h1         1 51G       0.050700
     58 H28         -9.1020    -6.6150     0.9720 ho         1 51G       0.529000
     59 H29         -7.8950    -3.5000     1.8390 h1         1 51G       0.058700
     60 H30         -6.1400    -2.5870     0.8330 h2         1 51G       0.070700
     61 H31         -4.6420    -2.9040    -1.0240 h1         1 51G       0.021700
     62 H32         -6.9730    -3.3210    -1.4510 hn         1 51G       0.394500
     63 H33         -6.0690    -4.2610    -2.4170 hn         1 51G       0.394500
     64 H35         -4.6120    -5.8630    -0.3260 hc         1 51G       0.057700
     65 H36         -3.8500    -5.1410    -1.7410 hc         1 51G       0.057700
     66 H37         -2.2280    -5.4380     0.2010 hc         1 51G       0.047700
     67 H38         -2.3810    -3.7650    -0.3330 hc         1 51G       0.047700
     68 H39         -3.8080    -5.0620     2.0300 h1         1 51G       0.068700
     69 H40         -1.4680    -4.5470     2.4420 h1         1 51G       0.057700
     70 H41         -0.7040    -2.1800     2.6380 hc         1 51G       0.040367
     71 H42         -1.1230    -2.5640     0.9730 hc         1 51G       0.040367
     72 H43         -2.2440    -1.6250     1.9680 hc         1 51G       0.040367
     73 H44         -3.3370    -2.8800     3.9220 hn         1 51G       0.409000
     74 H46         -2.1320    -3.5310     5.8450 h1         1 51G       0.029367
     75 H47         -1.0220    -4.4410     4.8160 h1         1 51G       0.029367
     76 H48         -1.0240    -2.6720     4.7650 h1         1 51G       0.029367
@<TRIPOS>BOND
     1     1     2 1   
     2     1    34 1   
     3     2     3 1   
     4     2    11 1   
     5     2    35 1   
     6     3     4 1   
     7     3     6 1   
     8     3    36 1   
     9     4     5 1   
    10     4    37 1   
    11     5    38 1   
    12     5    39 1   
    13     5    40 1   
    14     6     7 1   
    15     6     8 1   
    16     6     9 1   
    17     7    41 1   
    18     7    42 1   
    19     7    43 1   
    20     8    44 1   
    21     9    10 1   
    22     9    45 1   
    23     9    46 1   
    24    10    11 1   
    25    11    12 1   
    26    11    47 1   
    27    12    13 1   
    28    13    14 1   
    29    13    19 1   
    30    13    48 1   
    31    14    15 1   
    32    14    16 1   
    33    14    49 1   
    34    15    50 1   
    35    15    51 1   
    36    16    17 1   
    37    16    52 1   
    38    16    53 1   
    39    17    18 1   
    40    17    21 1   
    41    17    54 1   
    42    18    55 1   
    43    18    56 1   
    44    19    20 1   
    45    19    21 1   
    46    19    57 1   
    47    20    58 1   
    48    21    22 1   
    49    21    59 1   
    50    22    23 1   
    51    23    24 1   
    52    23    28 1   
    53    23    60 1   
    54    24    25 1   
    55    24    26 1   
    56    24    61 1   
    57    25    62 1   
    58    25    63 1   
    59    26    27 1   
    60    26    64 1   
    61    26    65 1   
    62    27    29 1   
    63    27    66 1   
    64    27    67 1   
    65    28    29 1   
    66    29    30 1   
    67    29    68 1   
    68    30    31 1   
    69    30    32 1   
    70    30    69 1   
    71    31    70 1   
    72    31    71 1   
    73    31    72 1   
    74    32    33 1   
    75    32    73 1   
    76    33    74 1   
    77    33    75 1   
    78    33    76 1   
@<TRIPOS>SUBSTRUCTURE
     1 51G         1 TEMP              0 ****  ****    0 ROOT
