@<TRIPOS>MOLECULE
51G
   76    78     1     0     0
SMALL
No Charge or Current Charge


@<TRIPOS>ATOM
      1 O6         -12.2400    -7.7410     4.3740 oh         1 51G      -0.708000
      2 C14        -11.6910    -8.4730     3.2500 c6         1 51G       0.144300
      3 C15        -11.2390    -9.9140     3.7060 c6         1 51G       0.146500
      4 N          -12.4670   -10.7140     4.0790 n7         1 51G      -0.884400
      5 C19        -12.3630   -11.5960     5.2610 c3         1 51G       0.149100
      6 C16        -10.4290   -10.6390     2.5720 c6         1 51G       0.157000
      7 C18         -9.7350   -11.9400     3.0690 c3         1 51G      -0.109100
      8 O5         -11.4030   -11.0360     1.6030 oh         1 51G      -0.722000
      9 C17         -9.3390    -9.6770     1.9890 c6         1 51G       0.157600
     10 O4          -9.8950    -8.4210     1.5330 os         1 51G      -0.476000
     11 C13        -10.5440    -7.6540     2.5620 c6         1 51G       0.353300
     12 O3          -9.5620    -7.2080     3.5200 os         1 51G      -0.466000
     13 C11         -8.9960    -5.8860     3.3200 c6         1 51G       0.154300
     14 C10         -8.6100    -5.2860     4.7080 c6         1 51G       0.158500
     15 N1          -9.7760    -5.2220     5.6320 n8         1 51G      -0.973200
     16 C9          -8.0060    -3.8730     4.5490 c6         1 51G      -0.115400
     17 C8          -6.7750    -3.8780     3.6090 c6         1 51G       0.142500
     18 N2          -6.2470    -2.4940     3.5520 n8         1 51G      -1.022200
     19 C12         -7.7590    -5.9150     2.3590 c6         1 51G       0.153300
     20 O2          -8.1020    -6.4960     1.0780 oh         1 51G      -0.726000
     21 C7          -7.1240    -4.4880     2.1930 c6         1 51G       0.196300
     22 O1          -5.9640    -4.5800     1.3100 os         1 51G      -0.465000
     23 C6          -5.4670    -3.3440     0.7440 c6         1 51G       0.393300
     24 C5          -5.1110    -3.4750    -0.7940 c6         1 51G       0.145500
     25 N3          -6.2400    -3.9010    -1.6770 n8         1 51G      -0.978200
     26 C4          -3.8930    -4.4130    -0.9880 c6         1 51G      -0.071400
     27 C3          -2.7130    -3.9510    -0.1000 c6         1 51G      -0.099400
     28 O           -4.2960    -2.9270     1.4910 os         1 51G      -0.502000
     29 C2          -3.1580    -3.8290     1.3850 c6         1 51G       0.170300
     30 C1          -2.0100    -3.3340     2.3460 c3         1 51G       0.176500
     31 C           -1.5490    -1.8740     2.0950 c3         1 51G      -0.121100
     32 N4          -2.4010    -3.4930     3.7720 n7         1 51G      -0.869400
     33 C20         -1.3230    -3.4400     4.7820 c3         1 51G       0.148100
     34 H1         -11.4730    -7.2640     4.7790 ho         1 51G       0.505000
     35 H2         -12.4720    -8.5920     2.4830 h1         1 51G       0.061700
     36 H3         -10.5850    -9.7920     4.5840 h1         1 51G       0.074700
     37 H4         -13.1870   -10.0160     4.3220 hn         1 51G       0.425000
     38 H6         -13.3230   -12.0950     5.4510 h1         1 51G       0.034033
     39 H7         -11.6030   -12.3740     5.1270 h1         1 51G       0.034033
     40 H8         -12.1020   -11.0170     6.1560 h1         1 51G       0.034033
     41 H9          -9.1270   -11.7520     3.9620 hc         1 51G       0.044700
     42 H10        -10.4570   -12.7270     3.3120 hc         1 51G       0.044700
     43 H11         -9.0700   -12.3520     2.3000 hc         1 51G       0.044700
     44 H12        -12.1940   -11.1660     2.1900 ho         1 51G       0.524000
     45 H13         -8.8370   -10.1640     1.1410 h1         1 51G       0.066200
     46 H14         -8.5720    -9.4780     2.7520 h1         1 51G       0.066200
     47 H15        -11.0170    -6.7740     2.0990 h2         1 51G       0.066700
     48 H16         -9.7660    -5.2340     2.8820 h1         1 51G       0.044700
     49 H17         -7.8570    -5.9470     5.1680 h1         1 51G       0.076700
     50 H18         -9.4520    -4.9060     6.5530 hn         1 51G       0.390000
     51 H19        -10.4010    -4.4680     5.3270 hn         1 51G       0.390000
     52 H21         -7.7150    -3.4860     5.5350 hc         1 51G       0.049200
     53 H22         -8.7680    -3.1860     4.1540 hc         1 51G       0.049200
     54 H23         -5.9880    -4.5020     4.0610 h1         1 51G       0.039700
     55 H24         -5.8610    -2.2480     4.4690 hn         1 51G       0.410000
     56 H25         -5.4200    -2.5110     2.9350 hn         1 51G       0.410000
     57 H27         -7.0000    -6.5490     2.8410 h1         1 51G       0.050700
     58 H28         -8.7110    -7.2590     1.2710 ho         1 51G       0.529000
     59 H29         -7.8750    -3.8450     1.7110 h1         1 51G       0.058700
     60 H30         -6.2410    -2.5660     0.8330 h2         1 51G       0.070700
     61 H31         -4.8210    -2.4740    -1.1450 h1         1 51G       0.021700
     62 H32         -6.9930    -3.2060    -1.6210 hn         1 51G       0.394500
     63 H33         -5.9340    -3.8470    -2.6550 hn         1 51G       0.394500
     64 H35         -4.1700    -5.4450    -0.7280 hc         1 51G       0.057700
     65 H36         -3.5830    -4.4250    -2.0420 hc         1 51G       0.057700
     66 H37         -1.8810    -4.6640    -0.1850 hc         1 51G       0.047700
     67 H38         -2.3410    -2.9870    -0.4710 hc         1 51G       0.047700
     68 H39         -3.4630    -4.8260     1.7360 h1         1 51G       0.068700
     69 H40         -1.1500    -3.9880     2.1430 h1         1 51G       0.057700
     70 H41         -0.6920    -1.6130     2.7260 hc         1 51G       0.040367
     71 H42         -1.2310    -1.7350     1.0560 hc         1 51G       0.040367
     72 H43         -2.3580    -1.1640     2.3020 hc         1 51G       0.040367
     73 H44         -3.1030    -2.7770     3.9880 hn         1 51G       0.409000
     74 H46         -1.7240    -3.6630     5.7800 h1         1 51G       0.029367
     75 H47         -0.5410    -4.1790     4.5590 h1         1 51G       0.029367
     76 H48         -0.8590    -2.4460     4.8230 h1         1 51G       0.029367
@<TRIPOS>BOND
     1     1     2 1   
     2     1    34 1   
     3     2     3 1   
     4     2    11 1   
     5     2    35 1   
     6     3     4 1   
     7     3     6 1   
     8     3    36 1   
     9     4     5 1   
    10     4    37 1   
    11     5    38 1   
    12     5    39 1   
    13     5    40 1   
    14     6     7 1   
    15     6     8 1   
    16     6     9 1   
    17     7    41 1   
    18     7    42 1   
    19     7    43 1   
    20     8    44 1   
    21     9    10 1   
    22     9    45 1   
    23     9    46 1   
    24    10    11 1   
    25    11    12 1   
    26    11    47 1   
    27    12    13 1   
    28    13    14 1   
    29    13    19 1   
    30    13    48 1   
    31    14    15 1   
    32    14    16 1   
    33    14    49 1   
    34    15    50 1   
    35    15    51 1   
    36    16    17 1   
    37    16    52 1   
    38    16    53 1   
    39    17    18 1   
    40    17    21 1   
    41    17    54 1   
    42    18    55 1   
    43    18    56 1   
    44    19    20 1   
    45    19    21 1   
    46    19    57 1   
    47    20    58 1   
    48    21    22 1   
    49    21    59 1   
    50    22    23 1   
    51    23    24 1   
    52    23    28 1   
    53    23    60 1   
    54    24    25 1   
    55    24    26 1   
    56    24    61 1   
    57    25    62 1   
    58    25    63 1   
    59    26    27 1   
    60    26    64 1   
    61    26    65 1   
    62    27    29 1   
    63    27    66 1   
    64    27    67 1   
    65    28    29 1   
    66    29    30 1   
    67    29    68 1   
    68    30    31 1   
    69    30    32 1   
    70    30    69 1   
    71    31    70 1   
    72    31    71 1   
    73    31    72 1   
    74    32    33 1   
    75    32    73 1   
    76    33    74 1   
    77    33    75 1   
    78    33    76 1   
@<TRIPOS>SUBSTRUCTURE
     1 51G         1 TEMP              0 ****  ****    0 ROOT
