@<TRIPOS>MOLECULE
51H
  102   107     1     0     0
SMALL
No Charge or Current Charge


@<TRIPOS>ATOM
      1 O8          -2.0180     5.4560     2.3400 o          1 51H      -0.814500
      2 P           -2.3800     4.6570     1.1350 p5         1 51H       1.395800
      3 O7          -3.6420     5.1440     0.5100 o          1 51H      -0.814500
      4 O9          -2.4670     3.0860     1.4800 os         1 51H      -0.582400
      5 C14         -3.3120     2.1870     0.7400 c3         1 51H       0.228600
      6 C15         -2.7510     1.8920    -0.6880 c5         1 51H       0.126300
      7 C18         -3.8640     1.6820    -1.7660 c5         1 51H       0.113300
      8 O12         -3.3810     1.7900    -3.1100 oh         1 51H      -0.699000
      9 C17         -4.2700     0.2160    -1.4590 c5         1 51H       0.073300
     10 O11         -5.0110    -0.3620    -2.5530 oh         1 51H      -0.704000
     11 C16         -2.8540    -0.4200    -1.2280 c5         1 51H       0.313300
     12 N4          -2.7940    -1.5980    -0.3680 na         1 51H      -0.282300
     13 C21         -2.1510    -2.7880    -0.5990 ca         1 51H       0.129500
     14 N6          -1.3990    -3.1970    -1.6410 nb         1 51H      -0.203000
     15 C22         -0.8890    -4.4480    -1.5470 ca         1 51H       0.162900
     16 N7          -1.0590    -5.3180    -0.5240 nb         1 51H      -0.319000
     17 C23         -1.8130    -4.8820     0.4950 ca         1 51H       0.441900
     18 N8          -1.9850    -5.7530     1.5240 nv         1 51H      -1.072900
     19 C20         -2.3820    -3.5910     0.4900 ca         1 51H      -0.099600
     20 N5          -3.1610    -2.9660     1.4580 nc         1 51H      -0.582100
     21 C19         -3.3810    -1.7600     0.9010 cd         1 51H       0.436700
     22 O10         -2.0340     0.6270    -0.6620 os         1 51H      -0.418000
     23 O6          -1.1710     4.6450     0.0700 os         1 51H      -0.589400
     24 C13          0.2010     4.6820     0.5480 c6         1 51H       0.221300
     25 C12          1.1920     4.9660    -0.6230 c6         1 51H       0.160500
     26 N3           0.8290     6.1410    -1.4800 n8         1 51H      -0.999200
     27 C11          2.6280     5.1380    -0.0590 c6         1 51H       0.135300
     28 O5           3.5040     5.4220    -1.1600 oh         1 51H      -0.726000
     29 C9           3.0280     3.8680     0.7480 c6         1 51H       0.133300
     30 C10          4.4350     4.0050     1.4160 c3         1 51H       0.167600
     31 O4           4.8040     2.8630     2.2120 oh         1 51H      -0.701000
     32 O3           2.0420     3.6200     1.7960 os         1 51H      -0.469000
     33 C8           0.6780     3.4060     1.3380 c6         1 51H       0.368300
     34 O2           0.6430     2.2200     0.5020 os         1 51H      -0.473000
     35 C7           1.1010     0.9590     1.0840 c6         1 51H       0.155300
     36 C6           0.1570     0.3530     2.1930 c6         1 51H       0.131500
     37 N2           0.0240     1.1990     3.4080 n8         1 51H      -0.977200
     38 C5           0.6830    -1.0280     2.6650 c6         1 51H      -0.117400
     39 C4           0.8890    -2.0070     1.4870 c6         1 51H       0.166500
     40 N1           1.3420    -3.3210     1.9980 n8         1 51H      -0.997200
     41 C24          1.2690    -0.0560    -0.0910 c6         1 51H       0.150300
     42 O13          2.0260     0.5760    -1.1420 oh         1 51H      -0.733000
     43 C3           1.8600    -1.4220     0.4060 c6         1 51H       0.188300
     44 O1           2.0340    -2.4070    -0.6580 os         1 51H      -0.507000
     45 C2           3.1980    -2.2530    -1.5100 c6         1 51H       0.415300
     46 O            4.3940    -2.5700    -0.7580 os         1 51H      -0.482000
     47 C25          3.0970    -3.1910    -2.7770 c6         1 51H       0.139500
     48 N9           1.8670    -2.9780    -3.5920 n8         1 51H      -0.977200
     49 C26          3.1810    -4.6840    -2.3690 c6         1 51H      -0.149400
     50 C27          4.4440    -4.9360    -1.5100 c6         1 51H       0.146300
     51 O14          4.4600    -6.3050    -1.0780 oh         1 51H      -0.713000
     52 C1           4.4840    -3.9480    -0.2980 c6         1 51H       0.162300
     53 C            5.8100    -4.0860     0.5240 c3         1 51H       0.164800
     54 N            5.9550    -3.1260     1.6480 n8         1 51H      -0.990200
     55 H2          -3.4200     1.2440     1.2900 h1         1 51H       0.022700
     56 H3          -4.3190     2.6130     0.6490 h1         1 51H       0.022700
     57 H4          -2.0650     2.6870    -0.9970 h1         1 51H       0.133700
     58 H5          -4.7070     2.3700    -1.6120 h1         1 51H       0.057700
     59 H6          -3.9170     1.1220    -3.6040 ho         1 51H       0.506000
     60 H7          -4.8680     0.1780    -0.5370 h1         1 51H       0.053700
     61 H8          -5.3840    -1.2220    -2.2450 ho         1 51H       0.506000
     62 H9          -2.4270    -0.7160    -2.1950 h2         1 51H       0.112700
     63 H10         -0.2830    -4.7920    -2.3830 h5         1 51H       0.038100
     64 H11         -1.3570    -6.5490     1.5990 hn         1 51H       0.503500
     65 H12         -2.3890    -5.3910     2.3840 hn         1 51H       0.503500
     66 H13         -3.9590    -0.9630     1.3530 h5         1 51H       0.092800
     67 H14          0.2840     5.5290     1.2450 h1         1 51H       0.085700
     68 H15          1.1870     4.0900    -1.2890 h1         1 51H       0.038700
     69 H16         -0.1230     5.9750    -1.8330 hn         1 51H       0.404000
     70 H17          0.7000     6.9660    -0.8820 hn         1 51H       0.404000
     71 H19          2.6260     5.9940     0.6330 h1         1 51H       0.053700
     72 H20          2.8960     5.8740    -1.8000 ho         1 51H       0.492000
     73 H21          3.0620     3.0020     0.0720 h1         1 51H       0.068700
     74 H22          5.1810     4.1590     0.6250 h1         1 51H       0.016200
     75 H23          4.4320     4.9090     2.0410 h1         1 51H       0.016200
     76 H24          5.6590     3.0830     2.6470 ho         1 51H       0.488000
     77 H25          0.0150     3.2810     2.2050 h2         1 51H       0.115700
     78 H26          2.0950     1.1180     1.5270 h1         1 51H       0.057700
     79 H27         -0.8480     0.2240     1.7600 h1         1 51H       0.078700
     80 H28         -0.5360     0.6980     4.1050 hn         1 51H       0.392500
     81 H29          0.9420     1.2930     3.8530 hn         1 51H       0.392500
     82 H31          1.6340    -0.9010     3.2010 hc         1 51H       0.046700
     83 H32         -0.0260    -1.4660     3.3810 hc         1 51H       0.046700
     84 H33         -0.0810    -2.1770     1.0030 h1         1 51H       0.031700
     85 H34          0.5310    -3.8190     2.3770 hn         1 51H       0.396000
     86 H35          1.6070    -3.8780     1.1790 hn         1 51H       0.396000
     87 H37          0.2640    -0.2790    -0.4750 h1         1 51H       0.057700
     88 H38          1.6570     1.4900    -1.1760 ho         1 51H       0.528000
     89 H39          2.8340    -1.2390     0.8830 h1         1 51H       0.076700
     90 H40          3.2720    -1.2220    -1.8800 h2         1 51H       0.106700
     91 H41          3.9560    -2.9730    -3.4300 h1         1 51H       0.060700
     92 H42          1.6680    -3.8360    -4.1170 hn         1 51H       0.397500
     93 H43          1.0780    -2.9000    -2.9400 hn         1 51H       0.397500
     94 H45          2.2850    -4.9680    -1.7990 hc         1 51H       0.045700
     95 H46          3.2050    -5.3190    -3.2650 hc         1 51H       0.045700
     96 H47          5.3280    -4.7410    -2.1360 h1         1 51H       0.028700
     97 H48          4.4390    -6.8610    -1.8910 ho         1 51H       0.495000
     98 H49          3.6410    -4.1610     0.3740 h1         1 51H       0.094700
     99 H50          5.8830    -5.1050     0.9280 h1         1 51H       0.030200
    100 H51          6.6540    -3.9340    -0.1630 h1         1 51H       0.030200
    101 H52          6.9290    -3.1350     1.9730 hn         1 51H       0.397500
    102 H53          5.8310    -2.1810     1.2660 hn         1 51H       0.397500
@<TRIPOS>BOND
     1     1     2 1   
     2     2     3 1   
     3     2     4 1   
     4     2    23 1   
     5     4     5 1   
     6     5     6 1   
     7     5    55 1   
     8     5    56 1   
     9     6     7 1   
    10     6    22 1   
    11     6    57 1   
    12     7     8 1   
    13     7     9 1   
    14     7    58 1   
    15     8    59 1   
    16     9    10 1   
    17     9    11 1   
    18     9    60 1   
    19    10    61 1   
    20    11    12 1   
    21    11    22 1   
    22    11    62 1   
    23    12    13 1   
    24    12    21 1   
    25    13    14 ar  
    26    13    19 ar  
    27    14    15 ar  
    28    15    16 ar  
    29    15    63 1   
    30    16    17 ar  
    31    17    18 1   
    32    17    19 ar  
    33    18    64 1   
    34    18    65 1   
    35    19    20 1   
    36    20    21 2   
    37    21    66 1   
    38    23    24 1   
    39    24    25 1   
    40    24    33 1   
    41    24    67 1   
    42    25    26 1   
    43    25    27 1   
    44    25    68 1   
    45    26    69 1   
    46    26    70 1   
    47    27    28 1   
    48    27    29 1   
    49    27    71 1   
    50    28    72 1   
    51    29    30 1   
    52    29    32 1   
    53    29    73 1   
    54    30    31 1   
    55    30    74 1   
    56    30    75 1   
    57    31    76 1   
    58    32    33 1   
    59    33    34 1   
    60    33    77 1   
    61    34    35 1   
    62    35    36 1   
    63    35    41 1   
    64    35    78 1   
    65    36    37 1   
    66    36    38 1   
    67    36    79 1   
    68    37    80 1   
    69    37    81 1   
    70    38    39 1   
    71    38    82 1   
    72    38    83 1   
    73    39    40 1   
    74    39    43 1   
    75    39    84 1   
    76    40    85 1   
    77    40    86 1   
    78    41    42 1   
    79    41    43 1   
    80    41    87 1   
    81    42    88 1   
    82    43    44 1   
    83    43    89 1   
    84    44    45 1   
    85    45    46 1   
    86    45    47 1   
    87    45    90 1   
    88    46    52 1   
    89    47    48 1   
    90    47    49 1   
    91    47    91 1   
    92    48    92 1   
    93    48    93 1   
    94    49    50 1   
    95    49    94 1   
    96    49    95 1   
    97    50    51 1   
    98    50    52 1   
    99    50    96 1   
   100    51    97 1   
   101    52    53 1   
   102    52    98 1   
   103    53    54 1   
   104    53    99 1   
   105    53   100 1   
   106    54   101 1   
   107    54   102 1   
@<TRIPOS>SUBSTRUCTURE
     1 51H         1 TEMP              0 ****  ****    0 ROOT
