@<TRIPOS>MOLECULE
51H
  102   107     1     0     0
SMALL
abcg2


@<TRIPOS>ATOM
      1 O8          -2.0590     5.5480     1.3900 o          1 51H      -0.814500
      2 P           -2.1800     4.6650     0.1870 p5         1 51H       1.395800
      3 O7          -2.8140     5.1350    -1.0860 o          1 51H      -0.814500
      4 O9          -2.9220     3.2840     0.6860 os         1 51H      -0.582400
      5 C14         -4.0090     2.7420    -0.0260 c3         1 51H       0.228600
      6 C15         -3.5850     1.8980    -1.2180 c5         1 51H       0.126300
      7 C18         -4.7800     1.2690    -1.9220 c5         1 51H       0.113300
      8 O12         -4.4310     0.9990    -3.2560 oh         1 51H      -0.699000
      9 C17         -4.9300    -0.0300    -1.1280 c5         1 51H       0.073300
     10 O11         -5.5850    -1.0650    -1.7980 oh         1 51H      -0.704000
     11 C16         -3.4640    -0.4040    -0.9020 c5         1 51H       0.313300
     12 N4          -3.2420    -1.1730     0.3000 na         1 51H      -0.282300
     13 C21         -2.7920    -2.4590     0.3720 ca         1 51H       0.129500
     14 N6          -2.5060    -3.2920    -0.6260 nb         1 51H      -0.203000
     15 C22         -2.0570    -4.4530    -0.1820 ca         1 51H       0.162900
     16 N7          -1.8790    -4.8440     1.0780 nb         1 51H      -0.319000
     17 C23         -2.1760    -3.9970     2.0710 ca         1 51H       0.441900
     18 N8          -1.9750    -4.3720     3.3340 nv         1 51H      -1.072900
     19 C20         -2.6680    -2.7250     1.7260 ca         1 51H      -0.099600
     20 N5          -3.0200    -1.6300     2.4720 nc         1 51H      -0.582100
     21 C19         -3.3510    -0.7330     1.5910 cd         1 51H       0.436700
     22 O10         -2.7600     0.7990    -0.8170 os         1 51H      -0.418000
     23 O6          -0.6990     4.0900    -0.2270 os         1 51H      -0.589400
     24 C13          0.4250     4.1980     0.6170 c6         1 51H       0.221300
     25 C12          1.6320     4.6020    -0.2240 c6         1 51H       0.160500
     26 N3           1.3950     5.9070    -0.8160 n8         1 51H      -0.999200
     27 C11          2.8580     4.6600     0.6790 c6         1 51H       0.135300
     28 O5           3.9810     4.9370    -0.1310 oh         1 51H      -0.726000
     29 C9           3.0240     3.3300     1.4180 c6         1 51H       0.133300
     30 C10          4.1600     3.3610     2.4170 c3         1 51H       0.167600
     31 O4           4.3100     2.0790     2.9770 oh         1 51H      -0.701000
     32 O3           1.8430     3.0270     2.1430 os         1 51H      -0.469000
     33 C8           0.6800     2.8980     1.3770 c6         1 51H       0.368300
     34 O2           0.7540     1.8600     0.4450 os         1 51H      -0.473000
     35 C7           1.2130     0.5830     0.8450 c6         1 51H       0.155300
     36 C6           0.1980    -0.2350     1.6370 c6         1 51H       0.131500
     37 N2          -0.1540     0.4090     2.8930 n8         1 51H      -0.977200
     38 C5           0.7560    -1.6450     1.8290 c6         1 51H      -0.117400
     39 C4           1.0620    -2.3400     0.5140 c6         1 51H       0.166500
     40 N1           1.5600    -3.6830     0.7600 n8         1 51H      -0.997200
     41 C24          1.5630    -0.1120    -0.4800 c6         1 51H       0.150300
     42 O13          2.5320     0.6250    -1.1870 oh         1 51H      -0.733000
     43 C3           2.0960    -1.5220    -0.2530 c6         1 51H       0.188300
     44 O1           2.3260    -2.2120    -1.4670 os         1 51H      -0.507000
     45 C2           3.5220    -2.0300    -2.1760 c6         1 51H       0.415300
     46 O            4.6570    -2.1070    -1.3680 os         1 51H      -0.482000
     47 C25          3.5560    -3.1000    -3.2640 c6         1 51H       0.139500
     48 N9           2.3790    -2.9920    -4.1070 n8         1 51H      -0.977200
     49 C26          3.7960    -4.4750    -2.6400 c6         1 51H      -0.149400
     50 C27          5.0240    -4.4620    -1.7360 c6         1 51H       0.146300
     51 O14          5.1840    -5.6730    -1.0300 oh         1 51H      -0.713000
     52 C1           4.9020    -3.3440    -0.7060 c6         1 51H       0.162300
     53 C            6.1630    -3.1400     0.1120 c3         1 51H       0.164800
     54 N            5.9540    -2.1310     1.1380 n8         1 51H      -0.990200
     55 H2          -4.5800     2.1390     0.6880 h1         1 51H       0.022700
     56 H3          -4.6830     3.5230    -0.3910 h1         1 51H       0.022700
     57 H4          -3.0100     2.5220    -1.9070 h1         1 51H       0.133700
     58 H5          -5.6770     1.8990    -1.8590 h1         1 51H       0.057700
     59 H6          -5.0050     0.2940    -3.5760 ho         1 51H       0.506000
     60 H7          -5.4100     0.1930    -0.1670 h1         1 51H       0.053700
     61 H8          -6.5340    -0.9590    -1.6840 ho         1 51H       0.506000
     62 H9          -3.1030    -1.0260    -1.7280 h2         1 51H       0.112700
     63 H10         -1.7960    -5.1860    -0.9380 h5         1 51H       0.038100
     64 H11         -1.6320    -5.2930     3.5440 hn         1 51H       0.503500
     65 H12         -2.2070    -3.7640     4.0990 hn         1 51H       0.503500
     66 H13         -3.6640     0.2740     1.8240 h5         1 51H       0.092800
     67 H14          0.2650     4.9800     1.3680 h1         1 51H       0.085700
     68 H15          1.8130     3.8190    -0.9790 h1         1 51H       0.038700
     69 H16          2.1730     6.1440    -1.4180 hn         1 51H       0.404000
     70 H17          0.5850     5.8560    -1.4210 hn         1 51H       0.404000
     71 H19          2.7000     5.4610     1.4170 h1         1 51H       0.053700
     72 H20          4.6280     5.4260     0.3850 ho         1 51H       0.492000
     73 H21          3.2360     2.5490     0.6750 h1         1 51H       0.068700
     74 H22          5.0710     3.6790     1.8960 h1         1 51H       0.016200
     75 H23          3.9450     4.1210     3.1820 h1         1 51H       0.016200
     76 H24          5.0990     2.0870     3.5260 ho         1 51H       0.488000
     77 H25         -0.1200     2.7100     2.0960 h2         1 51H       0.115700
     78 H26          2.1350     0.6670     1.4410 h1         1 51H       0.057700
     79 H27         -0.7150    -0.2840     1.0360 h1         1 51H       0.078700
     80 H28         -0.8780    -0.1430     3.3400 hn         1 51H       0.392500
     81 H29          0.6420     0.3830     3.5200 hn         1 51H       0.392500
     82 H31          1.6710    -1.5990     2.4330 hc         1 51H       0.046700
     83 H32          0.0400    -2.2360     2.4070 hc         1 51H       0.046700
     84 H33          0.1400    -2.3440    -0.0900 h1         1 51H       0.031700
     85 H34          0.8310    -4.2260     1.2080 hn         1 51H       0.396000
     86 H35          1.7320    -4.1420    -0.1260 hn         1 51H       0.396000
     87 H37          0.6350    -0.1870    -1.0710 h1         1 51H       0.057700
     88 H38          2.1480     1.4820    -1.3990 ho         1 51H       0.528000
     89 H39          3.0170    -1.4740     0.3450 h1         1 51H       0.076700
     90 H40          3.5610    -1.0370    -2.6300 h2         1 51H       0.106700
     91 H41          4.4200    -2.8580    -3.8930 h1         1 51H       0.060700
     92 H42          2.4730    -3.6220    -4.8930 hn         1 51H       0.397500
     93 H43          1.5620    -3.3030    -3.5950 hn         1 51H       0.397500
     94 H45          2.9200    -4.7880    -2.0640 hc         1 51H       0.045700
     95 H46          3.9300    -5.2140    -3.4370 hc         1 51H       0.045700
     96 H47          5.9090    -4.2580    -2.3590 h1         1 51H       0.028700
     97 H48          5.3330    -6.3760    -1.6690 ho         1 51H       0.495000
     98 H49          4.0790    -3.5780    -0.0160 h1         1 51H       0.094700
     99 H50          6.4080    -4.0830     0.6020 h1         1 51H       0.030200
    100 H51          6.9950    -2.9190    -0.5740 h1         1 51H       0.030200
    101 H52          6.7990    -2.0350     1.6850 hn         1 51H       0.397500
    102 H53          5.8040    -1.2300     0.7030 hn         1 51H       0.397500
@<TRIPOS>BOND
     1     1     2 1   
     2     2     3 1   
     3     2     4 1   
     4     2    23 1   
     5     4     5 1   
     6     5     6 1   
     7     5    55 1   
     8     5    56 1   
     9     6     7 1   
    10     6    22 1   
    11     6    57 1   
    12     7     8 1   
    13     7     9 1   
    14     7    58 1   
    15     8    59 1   
    16     9    10 1   
    17     9    11 1   
    18     9    60 1   
    19    10    61 1   
    20    11    12 1   
    21    11    22 1   
    22    11    62 1   
    23    12    13 1   
    24    12    21 1   
    25    13    14 ar  
    26    13    19 ar  
    27    14    15 ar  
    28    15    16 ar  
    29    15    63 1   
    30    16    17 ar  
    31    17    18 1   
    32    17    19 ar  
    33    18    64 1   
    34    18    65 1   
    35    19    20 1   
    36    20    21 2   
    37    21    66 1   
    38    23    24 1   
    39    24    25 1   
    40    24    33 1   
    41    24    67 1   
    42    25    26 1   
    43    25    27 1   
    44    25    68 1   
    45    26    69 1   
    46    26    70 1   
    47    27    28 1   
    48    27    29 1   
    49    27    71 1   
    50    28    72 1   
    51    29    30 1   
    52    29    32 1   
    53    29    73 1   
    54    30    31 1   
    55    30    74 1   
    56    30    75 1   
    57    31    76 1   
    58    32    33 1   
    59    33    34 1   
    60    33    77 1   
    61    34    35 1   
    62    35    36 1   
    63    35    41 1   
    64    35    78 1   
    65    36    37 1   
    66    36    38 1   
    67    36    79 1   
    68    37    80 1   
    69    37    81 1   
    70    38    39 1   
    71    38    82 1   
    72    38    83 1   
    73    39    40 1   
    74    39    43 1   
    75    39    84 1   
    76    40    85 1   
    77    40    86 1   
    78    41    42 1   
    79    41    43 1   
    80    41    87 1   
    81    42    88 1   
    82    43    44 1   
    83    43    89 1   
    84    44    45 1   
    85    45    46 1   
    86    45    47 1   
    87    45    90 1   
    88    46    52 1   
    89    47    48 1   
    90    47    49 1   
    91    47    91 1   
    92    48    92 1   
    93    48    93 1   
    94    49    50 1   
    95    49    94 1   
    96    49    95 1   
    97    50    51 1   
    98    50    52 1   
    99    50    96 1   
   100    51    97 1   
   101    52    53 1   
   102    52    98 1   
   103    53    54 1   
   104    53    99 1   
   105    53   100 1   
   106    54   101 1   
   107    54   102 1   
@<TRIPOS>SUBSTRUCTURE
     1 51H         1 TEMP              0 ****  ****    0 ROOT
