@<TRIPOS>MOLECULE
51I
   34    35     1     0     0
SMALL
abcg2


@<TRIPOS>ATOM
      1 N01         11.8100     3.6340    25.9460 nv         1 51I      -1.037900
      2 C02         11.0820     4.6570    26.4820 cc         1 51I       0.645300
      3 N03         10.0620     5.2060    25.9160 nd         1 51I      -0.662000
      4 C04          9.4890     6.1700    26.7180 cd         1 51I       0.277500
      5 C05          8.2770     6.9340    26.2170 c          1 51I       0.626500
      6 O06          7.9630     7.9550    26.8620 o          1 51I      -0.703500
      7 O07          7.7080     6.4720    25.2130 o          1 51I      -0.703500
      8 C08         10.0820     6.3530    27.9310 cc         1 51I      -0.196300
      9 C09          9.7760     7.3050    29.0510 c3         1 51I       0.055200
     10 C10         10.4820     6.9530    30.3330 ca         1 51I      -0.063300
     11 C11          9.9730     5.9730    31.1830 ca         1 51I      -0.101000
     12 C12         10.6340     5.6310    32.3530 ca         1 51I      -0.114500
     13 C13         11.8260     6.2560    32.7150 ca         1 51I      -0.099300
     14 C14         12.5100     5.9250    34.0110 c3         1 51I      -0.024100
     15 C15         11.9240     6.7050    35.1900 c3         1 51I      -0.076400
     16 C16         12.6370     6.4020    36.4990 c3         1 51I      -0.088100
     17 C17         12.3330     7.2350    31.8650 ca         1 51I      -0.114500
     18 C18         11.6720     7.5770    30.6920 ca         1 51I      -0.101000
     19 S19         11.4300     5.2570    28.0770 ss         1 51I      -0.239400
     20 H1          11.7030     3.5290    24.9490 hn         1 51I       0.447500
     21 H2          12.7680     3.5470    26.2450 hn         1 51I       0.447500
     22 H4          10.0520     8.3190    28.7500 hc         1 51I       0.077700
     23 H5           8.6980     7.3230    29.2100 hc         1 51I       0.077700
     24 H6           9.0490     5.4700    30.9230 ha         1 51I       0.117000
     25 H7          10.2160     4.8650    32.9960 ha         1 51I       0.098000
     26 H8          12.4260     4.8540    34.2140 hc         1 51I       0.037700
     27 H9          13.5780     6.1440    33.9310 hc         1 51I       0.037700
     28 H10         11.9830     7.7760    34.9760 hc         1 51I       0.041700
     29 H11         10.8600     6.4700    35.2830 hc         1 51I       0.041700
     30 H12         12.2010     6.9600    37.3280 hc         1 51I       0.026367
     31 H13         12.5770     5.3400    36.7460 hc         1 51I       0.026367
     32 H14         13.6950     6.6670    36.4420 hc         1 51I       0.026367
     33 H15         13.2580     7.7380    32.1220 ha         1 51I       0.098000
     34 H16         12.0900     8.3420    30.0470 ha         1 51I       0.117000
@<TRIPOS>BOND
     1     1     2 1   
     2     1    20 1   
     3     1    21 1   
     4     2     3 2   
     5     2    19 1   
     6     3     4 1   
     7     4     5 1   
     8     4     8 2   
     9     5     6 1   
    10     5     7 1   
    11     8     9 1   
    12     8    19 1   
    13     9    10 1   
    14     9    22 1   
    15     9    23 1   
    16    10    11 ar  
    17    10    18 ar  
    18    11    12 ar  
    19    11    24 1   
    20    12    13 ar  
    21    12    25 1   
    22    13    14 1   
    23    13    17 ar  
    24    14    15 1   
    25    14    26 1   
    26    14    27 1   
    27    15    16 1   
    28    15    28 1   
    29    15    29 1   
    30    16    30 1   
    31    16    31 1   
    32    16    32 1   
    33    17    18 ar  
    34    17    33 1   
    35    18    34 1   
@<TRIPOS>SUBSTRUCTURE
     1 51I         1 TEMP              0 ****  ****    0 ROOT
