@<TRIPOS>MOLECULE
51I
   34    35     1     0     0
SMALL
No Charge or Current Charge


@<TRIPOS>ATOM
      1 N01         11.8060     3.7020    25.7740 nv         1 51I      -1.037900
      2 C02         11.0890     4.6360    26.4050 cc         1 51I       0.645300
      3 N03         10.2010     5.3030    25.7320 nd         1 51I      -0.662000
      4 C04          9.5660     6.2420    26.5690 cd         1 51I       0.277500
      5 C05          8.4550     7.2020    26.1060 c          1 51I       0.626500
      6 O06          7.9440     7.9970    26.8880 o          1 51I      -0.703500
      7 O07          8.0900     7.1570    24.9350 o          1 51I      -0.703500
      8 C08         10.0530     6.2160    27.8840 cc         1 51I      -0.196300
      9 C09          9.6330     7.0630    29.0730 c3         1 51I       0.055200
     10 C10         10.3810     6.7660    30.3710 ca         1 51I      -0.063300
     11 C11          9.8910     5.8000    31.2710 ca         1 51I      -0.101000
     12 C12         10.5780     5.5280    32.4670 ca         1 51I      -0.114500
     13 C13         11.7630     6.2200    32.7780 ca         1 51I      -0.099300
     14 C14         12.5050     5.9290    34.0760 c3         1 51I      -0.024100
     15 C15         12.0230     6.8260    35.2350 c3         1 51I      -0.076400
     16 C16         12.7570     6.5520    36.5610 c3         1 51I      -0.088100
     17 C17         12.2530     7.1870    31.8810 ca         1 51I      -0.114500
     18 C18         11.5670     7.4590    30.6850 ca         1 51I      -0.101000
     19 S19         11.3110     5.0130    28.0700 ss         1 51I      -0.239400
     20 H1          11.7850     3.7430    24.7620 hn         1 51I       0.447500
     21 H2          12.6750     3.4140    26.2060 hn         1 51I       0.447500
     22 H4           9.7640     8.1230    28.8230 hc         1 51I       0.077700
     23 H5           8.5580     6.9320    29.2460 hc         1 51I       0.077700
     24 H6           8.9770     5.2550    31.0410 ha         1 51I       0.117000
     25 H7          10.1860     4.7800    33.1520 ha         1 51I       0.098000
     26 H8          12.3730     4.8760    34.3570 hc         1 51I       0.037700
     27 H9          13.5830     6.0740    33.9330 hc         1 51I       0.037700
     28 H10         12.1620     7.8790    34.9590 hc         1 51I       0.041700
     29 H11         10.9460     6.6760    35.3840 hc         1 51I       0.041700
     30 H12         12.3800     7.2130    37.3510 hc         1 51I       0.026367
     31 H13         12.6070     5.5140    36.8810 hc         1 51I       0.026367
     32 H14         13.8340     6.7290    36.4520 hc         1 51I       0.026367
     33 H15         13.1670     7.7310    32.1100 ha         1 51I       0.098000
     34 H16         11.9590     8.2060    29.9990 ha         1 51I       0.117000
@<TRIPOS>BOND
     1     1     2 1   
     2     1    20 1   
     3     1    21 1   
     4     2     3 2   
     5     2    19 1   
     6     3     4 1   
     7     4     5 1   
     8     4     8 2   
     9     5     6 1   
    10     5     7 1   
    11     8     9 1   
    12     8    19 1   
    13     9    10 1   
    14     9    22 1   
    15     9    23 1   
    16    10    11 ar  
    17    10    18 ar  
    18    11    12 ar  
    19    11    24 1   
    20    12    13 ar  
    21    12    25 1   
    22    13    14 1   
    23    13    17 ar  
    24    14    15 1   
    25    14    26 1   
    26    14    27 1   
    27    15    16 1   
    28    15    28 1   
    29    15    29 1   
    30    16    30 1   
    31    16    31 1   
    32    16    32 1   
    33    17    18 ar  
    34    17    33 1   
    35    18    34 1   
@<TRIPOS>SUBSTRUCTURE
     1 51I         1 TEMP              0 ****  ****    0 ROOT
