@<TRIPOS>MOLECULE
51J
   32    32     1     0     0
SMALL
No Charge or Current Charge


@<TRIPOS>ATOM
      1 O14          1.7030     1.6740    -2.3330 o          1 51J      -0.549000
      2 S13          1.2320     0.3650    -1.8790 sy         1 51J       1.138600
      3 O15          0.8170    -0.6680    -2.8300 o          1 51J      -0.549000
      4 N16          2.5150    -0.2720    -1.0420 n7         1 51J      -0.851300
      5 C19          2.2630    -1.4700    -0.2400 c3         1 51J       0.285900
      6 C20          3.4640    -1.8120     0.5280 c1         1 51J      -0.114100
      7 C21          4.4450    -2.0770     1.1850 c1         1 51J      -0.150100
      8 C29          5.6450    -2.3670     1.9780 c3         1 51J       0.004000
      9 C11         -0.0040     0.5760    -0.5830 ca         1 51J      -0.306500
     10 C10          0.1450     1.5500     0.4500 ca         1 51J       0.011400
     11 C9          -0.8880     1.6880     1.4020 ca         1 51J      -0.132000
     12 C17          1.3760     2.4350     0.5970 c          1 51J       0.720600
     13 O17          1.2120     3.6400     0.7320 o          1 51J      -0.687000
     14 O18          2.4690     1.8880     0.6730 o          1 51J      -0.687000
     15 C12         -1.1600    -0.2320    -0.6280 ca         1 51J       0.064000
     16 C7          -2.1710    -0.0820     0.3380 ca         1 51J      -0.307500
     17 C8          -2.0360     0.8830     1.3520 ca         1 51J      -0.002000
     18 S1          -3.6310    -1.1160     0.2640 sy         1 51J       1.126600
     19 O6          -4.7100    -0.5210     1.0490 o          1 51J      -0.561500
     20 O5          -3.8250    -1.6400    -1.0880 o          1 51J      -0.561500
     21 N7          -3.1670    -2.4020     1.1590 n8         1 51J      -1.003100
     22 H16          2.6700     0.5030    -0.3810 hn         1 51J       0.543000
     23 H191         1.4380    -1.3210     0.4700 h1         1 51J       0.058700
     24 H192         2.0030    -2.3230    -0.8820 h1         1 51J       0.058700
     25 H291         5.5630    -3.3540     2.4470 hc         1 51J       0.042367
     26 H292         6.5360    -2.3560     1.3390 hc         1 51J       0.042367
     27 H293         5.7710    -1.6150     2.7660 hc         1 51J       0.042367
     28 H12         -1.2780    -0.9780    -1.4150 ha         1 51J       0.146000
     29 H9          -0.7920     2.4240     2.1970 ha         1 51J       0.131000
     30 H8          -2.8120     1.0150     2.1040 ha         1 51J       0.117000
     31 H7A         -2.4190    -2.0100     1.7250 hn         1 51J       0.463500
     32 H7B         -3.9490    -2.4780     1.8050 hn         1 51J       0.463500
@<TRIPOS>BOND
     1     1     2 2   
     2     2     3 2   
     3     2     4 1   
     4     2     9 1   
     5     4     5 1   
     6     4    22 1   
     7     5     6 1   
     8     5    23 1   
     9     5    24 1   
    10     6     7 3   
    11     7     8 1   
    12     8    25 1   
    13     8    26 1   
    14     8    27 1   
    15     9    10 ar  
    16     9    15 ar  
    17    10    11 ar  
    18    10    12 1   
    19    11    17 ar  
    20    11    29 1   
    21    12    13 1   
    22    12    14 1   
    23    15    16 ar  
    24    15    28 1   
    25    16    17 ar  
    26    16    18 1   
    27    17    30 1   
    28    18    19 2   
    29    18    20 2   
    30    18    21 1   
    31    21    31 1   
    32    21    32 1   
@<TRIPOS>SUBSTRUCTURE
     1 51J         1 TEMP              0 ****  ****    0 ROOT
