@<TRIPOS>MOLECULE
51J
   32    32     1     0     0
SMALL
abcg2


@<TRIPOS>ATOM
      1 O14          1.6240     1.5370    -2.2490 o          1 51J      -0.549000
      2 S13          1.2300     0.2760    -1.6490 sy         1 51J       1.138600
      3 O15          0.7720    -0.8090    -2.5040 o          1 51J      -0.549000
      4 N16          2.5150    -0.2790    -0.7840 n7         1 51J      -0.851300
      5 C19          2.3770    -1.6020    -0.1660 c3         1 51J       0.285900
      6 C20          3.6110    -1.9290     0.5370 c1         1 51J      -0.114100
      7 C21          4.6260    -2.1930     1.1250 c1         1 51J      -0.150100
      8 C29          5.8560    -2.5110     1.8320 c3         1 51J       0.004000
      9 C11         -0.0650     0.6140    -0.4670 ca         1 51J      -0.306500
     10 C10          0.0310     1.6960     0.4170 ca         1 51J       0.011400
     11 C9          -1.0490     1.9370     1.2580 ca         1 51J      -0.132000
     12 C17          1.2470     2.6150     0.5480 c          1 51J       0.720600
     13 O17          1.0060     3.8250     0.5640 o          1 51J      -0.687000
     14 O18          2.3530     2.0510     0.6870 o          1 51J      -0.687000
     15 C12         -1.1810    -0.2040    -0.5000 ca         1 51J       0.064000
     16 C7          -2.2210     0.0500     0.3810 ca         1 51J      -0.307500
     17 C8          -2.1680     1.1190     1.2580 ca         1 51J      -0.002000
     18 S1          -3.6400    -1.0090     0.3490 sy         1 51J       1.126600
     19 O6          -4.7220    -0.3190     1.0350 o          1 51J      -0.561500
     20 O5          -3.8650    -1.4710    -1.0120 o          1 51J      -0.561500
     21 N7          -3.0710    -2.3130     1.1840 n8         1 51J      -1.003100
     22 H16          2.7480     0.4610    -0.1050 hn         1 51J       0.543000
     23 H191         1.5360    -1.6500     0.5370 h1         1 51J       0.058700
     24 H192         2.1930    -2.3430    -0.9440 h1         1 51J       0.058700
     25 H291         5.7980    -3.5000     2.2870 hc         1 51J       0.042367
     26 H292         6.7100    -2.5050     1.1550 hc         1 51J       0.042367
     27 H293         6.0510    -1.7900     2.6260 hc         1 51J       0.042367
     28 H12         -1.2410    -1.0250    -1.2010 ha         1 51J       0.146000
     29 H9          -1.0140     2.7790     1.9360 ha         1 51J       0.131000
     30 H8          -2.9860     1.3270     1.9340 ha         1 51J       0.117000
     31 H7A         -3.0060    -2.1430     2.1830 hn         1 51J       0.463500
     32 H7B         -3.6310    -3.1430     1.0050 hn         1 51J       0.463500
@<TRIPOS>BOND
     1     1     2 2   
     2     2     3 2   
     3     2     4 1   
     4     2     9 1   
     5     4     5 1   
     6     4    22 1   
     7     5     6 1   
     8     5    23 1   
     9     5    24 1   
    10     6     7 3   
    11     7     8 1   
    12     8    25 1   
    13     8    26 1   
    14     8    27 1   
    15     9    10 ar  
    16     9    15 ar  
    17    10    11 ar  
    18    10    12 1   
    19    11    17 ar  
    20    11    29 1   
    21    12    13 1   
    22    12    14 1   
    23    15    16 ar  
    24    15    28 1   
    25    16    17 ar  
    26    16    18 1   
    27    17    30 1   
    28    18    19 2   
    29    18    20 2   
    30    18    21 1   
    31    21    31 1   
    32    21    32 1   
@<TRIPOS>SUBSTRUCTURE
     1 51J         1 TEMP              0 ****  ****    0 ROOT
