@<TRIPOS>MOLECULE
51K
   35    37     1     0     0
SMALL
abcg2


@<TRIPOS>ATOM
      1 F26         -5.1690    -1.7660     0.9250 f          1 51K      -0.109500
      2 C23         -4.4920    -1.6830    -0.2290 c3         1 51K       0.361300
      3 F24         -4.1710    -2.9280    -0.5850 f          1 51K      -0.109500
      4 F25         -5.3490    -1.2160    -1.1440 f          1 51K      -0.109500
      5 C17         -3.2890    -0.7990    -0.0930 ca         1 51K      -0.212800
      6 C16         -3.4700     0.5780    -0.0670 ca         1 51K      -0.004000
      7 C18         -2.0250    -1.3480     0.0400 ca         1 51K      -0.005500
      8 C13         -0.9180    -0.5190     0.1970 ca         1 51K      -0.126500
      9 C14         -1.0940     0.8590     0.2200 ca         1 51K      -0.005500
     10 C15         -2.3650     1.4000     0.0870 ca         1 51K      -0.212800
     11 C19         -2.5260     2.8890     0.1530 c3         1 51K       0.361300
     12 F22         -3.7130     3.2940    -0.3040 f          1 51K      -0.109500
     13 F20         -2.4170     3.3350     1.4120 f          1 51K      -0.109500
     14 F21         -1.5880     3.5210    -0.5610 f          1 51K      -0.109500
     15 C10          0.4150    -1.1060     0.3310 cc         1 51K       0.583500
     16 N9           1.5040    -0.3810     0.4670 nd         1 51K      -0.531800
     17 N8           2.4670    -1.2960     0.5640 na         1 51K      -0.059700
     18 C12          1.9390    -2.5200     0.4780 cd         1 51K       0.427400
     19 N11          0.6390    -2.4380     0.3330 nc         1 51K      -0.690000
     20 C7           3.8540    -0.9140     0.6910 c3         1 51K       0.090600
     21 C6           4.3870    -0.3430    -0.6250 c3         1 51K      -0.120700
     22 C5           5.8190     0.0140    -0.5260 cc         1 51K       0.407300
     23 N4           6.8190    -0.4920    -1.1550 nd         1 51K      -0.350000
     24 N3           7.9390     0.1720    -0.7160 nd         1 51K      -0.351000
     25 C2           7.5350     1.0260     0.1480 cc         1 51K       0.413900
     26 O1           6.2070     0.9840     0.3190 os         1 51K      -0.283000
     27 H1          -4.4600     1.0000    -0.1710 ha         1 51K       0.147000
     28 H2          -1.8790    -2.4200     0.0210 ha         1 51K       0.153500
     29 H3          -0.2320     1.5020     0.3400 ha         1 51K       0.153500
     30 H4           2.5290    -3.4230     0.5310 h5         1 51K       0.072100
     31 H5           3.9340    -0.1910     1.5010 h1         1 51K       0.078200
     32 H6           4.4100    -1.8060     0.9770 h1         1 51K       0.078200
     33 H7           4.2840    -1.0800    -1.4200 hc         1 51K       0.094200
     34 H8           3.8090     0.5400    -0.9070 hc         1 51K       0.094200
     35 H9           8.1130     1.7360     0.7180 h5         1 51K       0.096100
@<TRIPOS>BOND
     1     1     2 1   
     2     2     3 1   
     3     2     4 1   
     4     2     5 1   
     5     5     6 ar  
     6     5     7 ar  
     7     6    10 ar  
     8     6    27 1   
     9     7     8 ar  
    10     7    28 1   
    11     8     9 ar  
    12     8    15 1   
    13     9    10 ar  
    14     9    29 1   
    15    10    11 1   
    16    11    12 1   
    17    11    13 1   
    18    11    14 1   
    19    15    16 2   
    20    15    19 1   
    21    16    17 1   
    22    17    18 1   
    23    17    20 1   
    24    18    19 2   
    25    18    30 1   
    26    20    21 1   
    27    20    31 1   
    28    20    32 1   
    29    21    22 1   
    30    21    33 1   
    31    21    34 1   
    32    22    23 2   
    33    22    26 1   
    34    23    24 1   
    35    24    25 2   
    36    25    26 1   
    37    25    35 1   
@<TRIPOS>SUBSTRUCTURE
     1 51K         1 TEMP              0 ****  ****    0 ROOT
