@<TRIPOS>MOLECULE
51K
   35    37     1     0     0
SMALL
No Charge or Current Charge


@<TRIPOS>ATOM
      1 F26         -5.0430    -2.1470     0.9650 f          1 51K      -0.109500
      2 C23         -4.5780    -1.7440    -0.2380 c3         1 51K       0.361300
      3 F24         -4.2750    -2.8610    -0.9390 f          1 51K      -0.109500
      4 F25         -5.6100    -1.1540    -0.8840 f          1 51K      -0.109500
      5 C17         -3.3720    -0.8110    -0.0830 ca         1 51K      -0.212800
      6 C16         -3.5530     0.5860    -0.0170 ca         1 51K      -0.004000
      7 C18         -2.0710    -1.3440     0.0250 ca         1 51K      -0.005500
      8 C13         -0.9480    -0.5010     0.1860 ca         1 51K      -0.126500
      9 C14         -1.1530     0.8960     0.2380 ca         1 51K      -0.005500
     10 C15         -2.4470     1.4470     0.1320 ca         1 51K      -0.212800
     11 C19         -2.6490     2.9640     0.2090 c3         1 51K       0.361300
     12 F22         -3.7480     3.3750    -0.4650 f          1 51K      -0.109500
     13 F20         -2.7940     3.3740     1.4890 f          1 51K      -0.109500
     14 F21         -1.6030     3.6490    -0.3090 f          1 51K      -0.109500
     15 C10          0.4110    -1.0590     0.3010 cc         1 51K       0.583500
     16 N9           1.4880    -0.3090     0.4560 nd         1 51K      -0.531800
     17 N8           2.4680    -1.2620     0.5090 na         1 51K      -0.059700
     18 C12          1.9190    -2.5300     0.3840 cd         1 51K       0.427400
     19 N11          0.6120    -2.4080     0.2520 nc         1 51K      -0.690000
     20 C7           3.8890    -0.9120     0.6770 c3         1 51K       0.090600
     21 C6           4.5440    -0.4170    -0.6290 c3         1 51K      -0.120700
     22 C5           5.9880    -0.0590    -0.4460 cc         1 51K       0.407300
     23 N4           7.0340    -0.8480    -0.6130 nd         1 51K      -0.350000
     24 N3           8.1330    -0.0830    -0.3140 nd         1 51K      -0.351000
     25 C2           7.6760     1.1170     0.0180 cc         1 51K       0.413900
     26 O1           6.3200     1.1920    -0.0450 os         1 51K      -0.283000
     27 H1          -4.5570     1.0030    -0.0760 ha         1 51K       0.147000
     28 H2          -1.9350    -2.4240    -0.0100 ha         1 51K       0.153500
     29 H3          -0.3000     1.5610     0.3690 ha         1 51K       0.153500
     30 H4           2.5090    -3.4400     0.3980 h5         1 51K       0.072100
     31 H5           3.9660    -0.1310     1.4440 h1         1 51K       0.078200
     32 H6           4.4290    -1.7940     1.0460 h1         1 51K       0.078200
     33 H7           4.4560    -1.1930    -1.3980 hc         1 51K       0.094200
     34 H8           3.9990     0.4580    -0.9990 hc         1 51K       0.094200
     35 H9           8.2430     1.9900     0.3170 h5         1 51K       0.096100
@<TRIPOS>BOND
     1     1     2 1   
     2     2     3 1   
     3     2     4 1   
     4     2     5 1   
     5     5     6 ar  
     6     5     7 ar  
     7     6    10 ar  
     8     6    27 1   
     9     7     8 ar  
    10     7    28 1   
    11     8     9 ar  
    12     8    15 1   
    13     9    10 ar  
    14     9    29 1   
    15    10    11 1   
    16    11    12 1   
    17    11    13 1   
    18    11    14 1   
    19    15    16 2   
    20    15    19 1   
    21    16    17 1   
    22    17    18 1   
    23    17    20 1   
    24    18    19 2   
    25    18    30 1   
    26    20    21 1   
    27    20    31 1   
    28    20    32 1   
    29    21    22 1   
    30    21    33 1   
    31    21    34 1   
    32    22    23 2   
    33    22    26 1   
    34    23    24 1   
    35    24    25 2   
    36    25    26 1   
    37    25    35 1   
@<TRIPOS>SUBSTRUCTURE
     1 51K         1 TEMP              0 ****  ****    0 ROOT
