@<TRIPOS>MOLECULE
51M
   59    62     1     0     0
SMALL
abcg2


@<TRIPOS>ATOM
      1 C1          -0.5350     0.3120    -2.4150 ca         1 51M      -0.018000
      2 C2          -1.7980     0.3610    -1.8070 ca         1 51M      -0.205000
      3 C3          -2.0770    -0.3790    -0.6770 ca         1 51M       0.354000
      4 C7           1.1840    -2.2080    -0.2890 ca         1 51M      -0.130000
      5 C8           0.8750    -3.0970     0.7020 ca         1 51M      -0.092000
      6 C9          -0.4320    -3.1520     1.2180 ca         1 51M      -0.144000
      7 C10         -1.3840    -2.2800     0.7640 ca         1 51M      -0.060000
      8 C12         -4.4870     0.2340    -0.5860 c5         1 51M       0.210800
      9 C13         -5.2430     0.9570     0.5330 c5         1 51M      -0.205700
     10 C14         -4.6380     0.3850     1.8090 c5         1 51M      -0.062400
     11 C15         -3.1830     0.2090     1.4250 c5         1 51M       0.193800
     12 C16         -6.7720     0.9040     0.4280 c          1 51M       0.728000
     13 O17         -7.4080     0.9950     1.4960 o          1 51M      -0.728500
     14 C21          3.0670     0.6130    -0.1670 ca         1 51M      -0.266500
     15 C24          4.1450    -0.2200     0.1890 ca         1 51M       0.030700
     16 C27          2.6780     1.2100     2.1250 ca         1 51M      -0.107800
     17 C31          1.9250     1.9290     3.2090 c3         1 51M      -0.043800
     18 C4           0.4770    -0.4530    -1.9010 ca         1 51M       0.153000
     19 C5          -1.0840    -1.3140    -0.2240 ca         1 51M      -0.065000
     20 C6           0.2140    -1.3150    -0.8010 ca         1 51M      -0.017000
     21 N11         -3.2610    -0.2690     0.0390 nh         1 51M      -0.816400
     22 O18         -7.2550     0.8120    -0.7190 o          1 51M      -0.728500
     23 N19          1.7720    -0.3360    -2.4670 nu         1 51M      -0.865100
     24 S20          2.7650     0.8860    -1.9180 sy         1 51M       1.125600
     25 O22          2.0410     2.1320    -2.0810 o          1 51M      -0.544500
     26 O23          4.0090     0.7380    -2.6540 o          1 51M      -0.544500
     27 C25          4.5220    -0.2610     1.5350 ca         1 51M      -0.107800
     28 C26          3.8020     0.4760     2.4620 ca         1 51M      -0.057000
     29 C28          2.2690     1.2730     0.7850 ca         1 51M       0.030700
     30 C29          4.9000    -1.1100    -0.7660 c3         1 51M      -0.062300
     31 H1          -0.3450     0.9360    -3.2770 ha         1 51M       0.128000
     32 H2          -2.5290     1.0390    -2.2240 ha         1 51M       0.133000
     33 H3           2.1860    -2.2080    -0.6950 ha         1 51M       0.094000
     34 H4           1.6320    -3.7760     1.0730 ha         1 51M       0.101000
     35 H5          -0.6870    -3.8940     1.9630 ha         1 51M       0.108000
     36 H6          -2.3960    -2.3530     1.1360 ha         1 51M       0.138000
     37 H7          -5.0600    -0.6050    -0.9900 h1         1 51M       0.050200
     38 H8          -4.3000     0.9170    -1.4160 h1         1 51M       0.050200
     39 H9          -4.9590     2.0180     0.4860 hc         1 51M       0.030700
     40 H10         -4.7580     1.0390     2.6720 hc         1 51M       0.053700
     41 H11         -5.0850    -0.5820     2.0540 hc         1 51M       0.053700
     42 H12         -2.6490     1.1670     1.4830 h1         1 51M       0.022700
     43 H13         -2.6580    -0.4920     2.0730 h1         1 51M       0.022700
     44 H15          6.6060    -0.8370     1.4560 hc         1 51M       0.040200
     45 H16          5.8880    -0.8880     3.0620 hc         1 51M       0.040200
     46 H17          5.5210    -2.1470     1.8930 hc         1 51M       0.040200
     47 H18          0.9400     1.4910     3.3820 hc         1 51M       0.040200
     48 H19          2.4710     1.8810     4.1510 hc         1 51M       0.040200
     49 H20          1.7690     2.9820     2.9710 hc         1 51M       0.040200
     50 H21          1.1570     3.0880     0.3910 hc         1 51M       0.056200
     51 H22          0.4640     1.6670    -0.3770 hc         1 51M       0.056200
     52 H23          0.3060     1.8850     1.3420 hc         1 51M       0.056200
     53 H24          2.2750    -1.1950    -2.6620 hn         1 51M       0.483000
     54 H25          4.1150     0.4540     3.4990 ha         1 51M       0.105000
     55 H26          5.7580    -0.6040    -1.2090 hc         1 51M       0.056200
     56 H27          5.2770    -1.9800    -0.2330 hc         1 51M       0.056200
     57 H28          4.2940    -1.4940    -1.5820 hc         1 51M       0.056200
     58 C30          5.6950    -1.0750     2.0070 c3         1 51M      -0.043800
     59 C32          0.9890     2.0150     0.5040 c3         1 51M      -0.062300
@<TRIPOS>BOND
     1     1     2 ar  
     2     1    18 ar  
     3     1    31 1   
     4     2     3 ar  
     5     2    32 1   
     6     3    19 ar  
     7     3    21 1   
     8     4     5 ar  
     9     4    20 ar  
    10     4    33 1   
    11     5     6 ar  
    12     5    34 1   
    13     6     7 ar  
    14     6    35 1   
    15     7    19 ar  
    16     7    36 1   
    17     8     9 1   
    18     8    21 1   
    19     8    37 1   
    20     8    38 1   
    21     9    10 1   
    22     9    12 1   
    23     9    39 1   
    24    10    11 1   
    25    10    40 1   
    26    10    41 1   
    27    11    21 1   
    28    11    42 1   
    29    11    43 1   
    30    12    13 1   
    31    12    22 1   
    32    14    15 ar  
    33    14    24 1   
    34    14    29 ar  
    35    15    27 ar  
    36    15    30 1   
    37    16    17 1   
    38    16    28 ar  
    39    16    29 ar  
    40    17    47 1   
    41    17    48 1   
    42    17    49 1   
    43    18    20 ar  
    44    18    23 1   
    45    19    20 ar  
    46    23    24 1   
    47    23    53 1   
    48    24    25 2   
    49    24    26 2   
    50    27    28 ar  
    51    27    58 1   
    52    28    54 1   
    53    29    59 1   
    54    30    55 1   
    55    30    56 1   
    56    30    57 1   
    57    44    58 1   
    58    45    58 1   
    59    46    58 1   
    60    50    59 1   
    61    51    59 1   
    62    52    59 1   
@<TRIPOS>SUBSTRUCTURE
     1 51M         1 TEMP              0 ****  ****    0 ROOT
