@<TRIPOS>MOLECULE
51M
   59    62     1     0     0
SMALL
No Charge or Current Charge


@<TRIPOS>ATOM
      1 C1          -0.5740     0.6850    -2.0670 ca         1 51M      -0.018000
      2 C2          -1.8380     0.7000    -1.4610 ca         1 51M      -0.205000
      3 C3          -2.1550    -0.2150    -0.4500 ca         1 51M       0.354000
      4 C7           1.0440    -2.1530    -0.2340 ca         1 51M      -0.130000
      5 C8           0.7320    -3.0800     0.7720 ca         1 51M      -0.092000
      6 C9          -0.5360    -3.0670     1.3660 ca         1 51M      -0.144000
      7 C10         -1.4920    -2.1240     0.9600 ca         1 51M      -0.060000
      8 C12         -4.6930    -0.3060    -0.6240 c5         1 51M       0.210800
      9 C13         -5.6410     0.6470     0.1420 c5         1 51M      -0.205700
     10 C14         -5.1890     0.4110     1.6120 c5         1 51M      -0.062400
     11 C15         -3.6520     0.5250     1.4570 c5         1 51M       0.193800
     12 C16         -7.1120     0.2340    -0.0990 c          1 51M       0.728000
     13 O17         -7.4860    -0.8940     0.1890 o          1 51M      -0.728500
     14 C21          3.3150     0.6840    -0.2260 ca         1 51M      -0.266500
     15 C24          4.2890    -0.3100     0.1380 ca         1 51M       0.030700
     16 C27          3.1440     1.3250     2.1550 ca         1 51M      -0.107800
     17 C31          2.5830     2.1630     3.3070 c3         1 51M      -0.043800
     18 C4           0.4020    -0.2460    -1.6720 ca         1 51M       0.153000
     19 C5          -1.1900    -1.1750    -0.0460 ca         1 51M      -0.065000
     20 C6           0.0920    -1.1940    -0.6590 ca         1 51M      -0.017000
     21 N11         -3.4320    -0.1320     0.1450 nh         1 51M      -0.816400
     22 O18         -7.8750     1.0630    -0.5700 o          1 51M      -0.728500
     23 N19          1.6540    -0.2040    -2.2960 nu         1 51M      -0.865100
     24 S20          2.8620     0.9340    -1.9980 sy         1 51M       1.125600
     25 O22          2.2000     2.2210    -2.2240 o          1 51M      -0.544500
     26 O23          3.9370     0.4920    -2.8870 o          1 51M      -0.544500
     27 C25          4.7080    -0.4220     1.4900 ca         1 51M      -0.107800
     28 C26          4.1410     0.3970     2.4690 ca         1 51M      -0.057000
     29 C28          2.7010     1.4670     0.8120 ca         1 51M       0.030700
     30 C29          4.9040    -1.2830    -0.8860 c3         1 51M      -0.062300
     31 H1          -0.3460     1.4070    -2.8480 ha         1 51M       0.128000
     32 H2          -2.5720     1.4380    -1.7690 ha         1 51M       0.133000
     33 H3           2.0350    -2.1950    -0.6710 ha         1 51M       0.094000
     34 H4           1.4740    -3.8090     1.0880 ha         1 51M       0.101000
     35 H5          -0.7800    -3.7890     2.1420 ha         1 51M       0.108000
     36 H6          -2.4710    -2.1410     1.4320 ha         1 51M       0.138000
     37 H7          -5.0270    -1.3520    -0.5840 h1         1 51M       0.050200
     38 H8          -4.5950    -0.0150    -1.6790 h1         1 51M       0.050200
     39 H9          -5.4880     1.6890    -0.1620 hc         1 51M       0.030700
     40 H10         -5.5970     1.1500     2.3100 hc         1 51M       0.053700
     41 H11         -5.4720    -0.5840     1.9780 hc         1 51M       0.053700
     42 H12         -3.3330     1.5760     1.4230 h1         1 51M       0.022700
     43 H13         -3.1210     0.0230     2.2770 h1         1 51M       0.022700
     44 H15          6.6850    -1.3370     1.3190 hc         1 51M       0.040200
     45 H16          6.1050    -1.2250     2.9760 hc         1 51M       0.040200
     46 H17          5.4200    -2.4430     1.9000 hc         1 51M       0.040200
     47 H18          1.5450     1.8870     3.5280 hc         1 51M       0.040200
     48 H19          3.1560     2.0260     4.2320 hc         1 51M       0.040200
     49 H20          2.6140     3.2340     3.0740 hc         1 51M       0.040200
     50 H21          1.9440     3.3890     0.0920 hc         1 51M       0.056200
     51 H22          0.8090     2.0380    -0.1370 hc         1 51M       0.056200
     52 H23          0.9920     2.7460     1.4210 hc         1 51M       0.056200
     53 H24          2.1630    -1.0750    -2.2740 hn         1 51M       0.483000
     54 H25          4.4730     0.3010     3.5000 ha         1 51M       0.105000
     55 H26          5.7250    -0.8080    -1.4370 hc         1 51M       0.056200
     56 H27          5.3080    -2.1930    -0.4340 hc         1 51M       0.056200
     57 H28          4.1680    -1.6530    -1.6060 hc         1 51M       0.056200
     58 C30          5.7870    -1.4100     1.9430 c3         1 51M      -0.043800
     59 C32          1.5610     2.4620     0.5320 c3         1 51M      -0.062300
@<TRIPOS>BOND
     1     1     2 ar  
     2     1    18 ar  
     3     1    31 1   
     4     2     3 ar  
     5     2    32 1   
     6     3    19 ar  
     7     3    21 1   
     8     4     5 ar  
     9     4    20 ar  
    10     4    33 1   
    11     5     6 ar  
    12     5    34 1   
    13     6     7 ar  
    14     6    35 1   
    15     7    19 ar  
    16     7    36 1   
    17     8     9 1   
    18     8    21 1   
    19     8    37 1   
    20     8    38 1   
    21     9    10 1   
    22     9    12 1   
    23     9    39 1   
    24    10    11 1   
    25    10    40 1   
    26    10    41 1   
    27    11    21 1   
    28    11    42 1   
    29    11    43 1   
    30    12    13 1   
    31    12    22 1   
    32    14    15 ar  
    33    14    24 1   
    34    14    29 ar  
    35    15    27 ar  
    36    15    30 1   
    37    16    17 1   
    38    16    28 ar  
    39    16    29 ar  
    40    17    47 1   
    41    17    48 1   
    42    17    49 1   
    43    18    20 ar  
    44    18    23 1   
    45    19    20 ar  
    46    23    24 1   
    47    23    53 1   
    48    24    25 2   
    49    24    26 2   
    50    27    28 ar  
    51    27    58 1   
    52    28    54 1   
    53    29    59 1   
    54    30    55 1   
    55    30    56 1   
    56    30    57 1   
    57    44    58 1   
    58    45    58 1   
    59    46    58 1   
    60    50    59 1   
    61    51    59 1   
    62    52    59 1   
@<TRIPOS>SUBSTRUCTURE
     1 51M         1 TEMP              0 ****  ****    0 ROOT
