@<TRIPOS>MOLECULE
51P
   38    40     1     0     0
SMALL
No Charge or Current Charge


@<TRIPOS>ATOM
      1 C'1          3.6430    -3.1670     3.6490 ca         1 51P      -0.093800
      2 C'2          4.9620    -3.0090     3.1640 ca         1 51P       0.140100
      3 C'3          5.6880    -4.1430     2.7340 ca         1 51P      -0.195000
      4 C'4          5.1040    -5.4200     2.7880 ca         1 51P      -0.070000
      5 C'5          3.7970    -5.5740     3.2730 ca         1 51P      -0.143000
      6 C'6          3.0700    -4.4520     3.7020 ca         1 51P      -0.059000
      7 N1           1.6840    -4.3260     9.5620 nb         1 51P      -0.268000
      8 C10          2.5020    -0.9670     3.0550 c3         1 51P      -0.051900
      9 C11          2.8420    -1.9980     4.1180 ce         1 51P      -0.024400
     10 C13          6.8480    -1.4850     2.6700 c3         1 51P       0.147900
     11 O13          5.5140    -1.7400     3.1440 os         1 51P      -0.350100
     12 C2           0.4150    -3.9160     9.7390 ca         1 51P       0.423900
     13 N2          -0.2080    -4.3590    10.8540 nv         1 51P      -1.053900
     14 N3          -0.3210    -3.1220     8.9410 nb         1 51P      -0.352000
     15 C4           0.2930    -2.6800     7.8370 ca         1 51P       0.469900
     16 N4          -0.4570    -1.9200     7.0090 nv         1 51P      -1.077900
     17 C5           1.6130    -3.0350     7.5680 ca         1 51P      -0.326800
     18 C6           2.5500    -2.7610     6.5190 cd         1 51P      -0.045200
     19 C7           3.7060    -3.4520     6.8330 cc         1 51P      -0.076900
     20 C8           2.2630    -3.8600     8.4440 ca         1 51P       0.330300
     21 O8           3.5490    -4.1500     8.0340 os         1 51P      -0.293400
     22 C9           2.3590    -1.8570     5.3850 cf         1 51P      -0.161000
     23 H'3          6.7030    -4.0560     2.3580 ha         1 51P       0.117000
     24 H'4          5.6670    -6.2910     2.4560 ha         1 51P       0.113000
     25 H'5          3.3460    -6.5630     3.3170 ha         1 51P       0.119000
     26 H'6          2.0570    -4.5790     4.0780 ha         1 51P       0.120000
     27 H10          1.4590    -0.6370     3.1350 hc         1 51P       0.045700
     28 H10A         3.1390    -0.0800     3.1490 hc         1 51P       0.045700
     29 H10B         2.6390    -1.3670     2.0430 hc         1 51P       0.045700
     30 H13          7.0770    -0.4150     2.7400 h1         1 51P       0.042033
     31 H13A         7.5860    -2.0300     3.2710 h1         1 51P       0.042033
     32 H13B         6.9540    -1.7870     1.6200 h1         1 51P       0.042033
     33 HN2          0.3600    -4.7640    11.5940 hn         1 51P       0.492000
     34 HN2A        -1.0720    -3.9030    11.1370 hn         1 51P       0.492000
     35 HN4         -1.4590    -1.9150     7.1770 hn         1 51P       0.499500
     36 HN4A        -0.1730    -1.8800     6.0360 hn         1 51P       0.499500
     37 H7           4.6660    -3.5100     6.3290 h4         1 51P       0.247000
     38 H9           1.7420    -0.9830     5.5940 ha         1 51P       0.170000
@<TRIPOS>BOND
     1     1     2 ar  
     2     1     6 ar  
     3     1     9 1   
     4     2     3 ar  
     5     2    11 1   
     6     3     4 ar  
     7     3    23 1   
     8     4     5 ar  
     9     4    24 1   
    10     5     6 ar  
    11     5    25 1   
    12     6    26 1   
    13     7    12 ar  
    14     7    20 ar  
    15     8     9 1   
    16     8    27 1   
    17     8    28 1   
    18     8    29 1   
    19     9    22 2   
    20    10    11 1   
    21    10    30 1   
    22    10    31 1   
    23    10    32 1   
    24    12    13 1   
    25    12    14 ar  
    26    13    33 1   
    27    13    34 1   
    28    14    15 ar  
    29    15    16 1   
    30    15    17 ar  
    31    16    35 1   
    32    16    36 1   
    33    17    18 1   
    34    17    20 ar  
    35    18    19 2   
    36    18    22 1   
    37    19    21 1   
    38    19    37 1   
    39    20    21 1   
    40    22    38 1   
@<TRIPOS>SUBSTRUCTURE
     1 51P         1 TEMP              0 ****  ****    0 ROOT
