@<TRIPOS>MOLECULE
51P
   38    40     1     0     0
SMALL
abcg2


@<TRIPOS>ATOM
      1 C'1          3.5300    -3.1400     3.6250 ca         1 51P      -0.093800
      2 C'2          4.8980    -3.0580     3.3140 ca         1 51P       0.140100
      3 C'3          5.6110    -4.2050     2.9680 ca         1 51P      -0.195000
      4 C'4          4.9640    -5.4380     2.9310 ca         1 51P      -0.070000
      5 C'5          3.6130    -5.5350     3.2360 ca         1 51P      -0.143000
      6 C'6          2.9090    -4.3830     3.5780 ca         1 51P      -0.059000
      7 N1           1.9740    -4.2150     9.4700 nb         1 51P      -0.268000
      8 C10          2.4160    -1.0000     2.8380 c3         1 51P      -0.051900
      9 C11          2.7490    -1.9230     3.9760 ce         1 51P      -0.024400
     10 C13          6.8370    -1.6700     3.0850 c3         1 51P       0.147900
     11 O13          5.4560    -1.8190     3.4080 os         1 51P      -0.350100
     12 C2           0.6500    -4.0410     9.6450 ca         1 51P       0.423900
     13 N2           0.0910    -4.6300    10.7370 nv         1 51P      -1.053900
     14 N3          -0.1870    -3.3750     8.8290 nb         1 51P      -0.352000
     15 C4           0.3010    -2.8060     7.7180 ca         1 51P       0.469900
     16 N4          -0.5690    -2.1830     6.9000 nv         1 51P      -1.077900
     17 C5           1.6820    -2.9020     7.4390 ca         1 51P      -0.326800
     18 C6           2.6140    -2.4920     6.4060 cd         1 51P      -0.045200
     19 C7           3.8120    -2.9950     6.7940 cc         1 51P      -0.076900
     20 C8           2.4130    -3.6340     8.3660 ca         1 51P       0.330300
     21 O8           3.7140    -3.6990     7.9890 os         1 51P      -0.293400
     22 C9           2.3210    -1.6860     5.2220 cf         1 51P      -0.161000
     23 H'3          6.6640    -4.1490     2.7360 ha         1 51P       0.117000
     24 H'4          5.5270    -6.3230     2.6610 ha         1 51P       0.113000
     25 H'5          3.1090    -6.4920     3.2080 ha         1 51P       0.119000
     26 H'6          1.8550    -4.4440     3.8220 ha         1 51P       0.120000
     27 H10          1.8320    -0.1430     3.1790 hc         1 51P       0.045700
     28 H10A         3.3280    -0.6370     2.3590 hc         1 51P       0.045700
     29 H10B         1.8450    -1.5340     2.0720 hc         1 51P       0.045700
     30 H13          7.0580    -0.6130     3.2090 h1         1 51P       0.042033
     31 H13A         7.4650    -2.2570     3.7590 h1         1 51P       0.042033
     32 H13B         7.0330    -1.9680     2.0520 h1         1 51P       0.042033
     33 HN2          0.7090    -4.9390    11.4700 hn         1 51P       0.492000
     34 HN2A        -0.8320    -4.3330    11.0070 hn         1 51P       0.492000
     35 HN4         -1.5260    -2.0730     7.1940 hn         1 51P       0.499500
     36 HN4A        -0.2530    -1.6680     6.0970 hn         1 51P       0.499500
     37 H7           4.7990    -2.9420     6.3700 h4         1 51P       0.247000
     38 H9           1.6960    -0.8120     5.3850 ha         1 51P       0.170000
@<TRIPOS>BOND
     1     1     2 ar  
     2     1     6 ar  
     3     1     9 1   
     4     2     3 ar  
     5     2    11 1   
     6     3     4 ar  
     7     3    23 1   
     8     4     5 ar  
     9     4    24 1   
    10     5     6 ar  
    11     5    25 1   
    12     6    26 1   
    13     7    12 ar  
    14     7    20 ar  
    15     8     9 1   
    16     8    27 1   
    17     8    28 1   
    18     8    29 1   
    19     9    22 2   
    20    10    11 1   
    21    10    30 1   
    22    10    31 1   
    23    10    32 1   
    24    12    13 1   
    25    12    14 ar  
    26    13    33 1   
    27    13    34 1   
    28    14    15 ar  
    29    15    16 1   
    30    15    17 ar  
    31    16    35 1   
    32    16    36 1   
    33    17    18 1   
    34    17    20 ar  
    35    18    19 2   
    36    18    22 1   
    37    19    21 1   
    38    19    37 1   
    39    20    21 1   
    40    22    38 1   
@<TRIPOS>SUBSTRUCTURE
     1 51P         1 TEMP              0 ****  ****    0 ROOT
