@<TRIPOS>MOLECULE
51Q
   20    20     1     0     0
SMALL
No Charge or Current Charge


@<TRIPOS>ATOM
      1 O2          -3.9660    -1.0840    -1.2250 o          1 51Q      -0.707500
      2 C4          -3.4770    -0.4560    -0.2960 c          1 51Q       0.734000
      3 O3          -4.1220     0.3070     0.4110 o          1 51Q      -0.707500
      4 C3          -1.9740    -0.6640     0.0030 c3         1 51Q      -0.085700
      5 C5          -1.6740    -0.8380     1.5120 c3         1 51Q      -0.062100
      6 S           -0.9780     0.7410    -0.6980 ss         1 51Q      -0.115200
      7 C            0.6870     0.1930    -0.4900 cc         1 51Q       0.285200
      8 C2           1.6740     1.0570     0.2200 c          1 51Q       0.462700
      9 O1           1.4610     2.1640     0.6970 o          1 51Q      -0.505000
     10 N2           2.8970     0.4700     0.2950 ns         1 51Q      -0.424400
     11 C1           3.1470    -0.7530    -0.2250 cc         1 51Q       0.605200
     12 O            4.3930    -1.1680    -0.0600 oh         1 51Q      -0.634600
     13 N1           2.2600    -1.5170    -0.8560 nd         1 51Q      -0.502700
     14 N            0.9460    -1.0240    -1.0020 nd         1 51Q      -0.337700
     15 H2          -1.6760    -1.5820    -0.5170 h1         1 51Q       0.073700
     16 H3          -0.6190    -1.0870     1.6750 hc         1 51Q       0.028367
     17 H4          -1.8990     0.0810     2.0660 hc         1 51Q       0.028367
     18 H5          -2.2800    -1.6510     1.9300 hc         1 51Q       0.028367
     19 H6           3.6400     0.9710     0.7570 hn         1 51Q       0.329500
     20 H8           4.3790    -2.0470    -0.4910 ho         1 51Q       0.506000
@<TRIPOS>BOND
     1     1     2 1   
     2     2     3 1   
     3     2     4 1   
     4     4     5 1   
     5     4     6 1   
     6     4    15 1   
     7     5    16 1   
     8     5    17 1   
     9     5    18 1   
    10     6     7 1   
    11     7     8 1   
    12     7    14 2   
    13     8     9 2   
    14     8    10 1   
    15    10    11 1   
    16    10    19 1   
    17    11    12 1   
    18    11    13 2   
    19    12    20 1   
    20    13    14 1   
@<TRIPOS>SUBSTRUCTURE
     1 51Q         1 TEMP              0 ****  ****    0 ROOT
