@<TRIPOS>MOLECULE
51Q
   20    20     1     0     0
SMALL
abcg2


@<TRIPOS>ATOM
      1 O2          -4.2300    -1.0510    -0.4230 o          1 51Q      -0.707500
      2 C4          -3.3900    -0.1450    -0.2940 c          1 51Q       0.734000
      3 O3          -3.5760     1.0840    -0.3640 o          1 51Q      -0.707500
      4 C3          -1.9510    -0.6180     0.0120 c3         1 51Q      -0.085700
      5 C5          -1.8950    -1.4080     1.3120 c3         1 51Q      -0.062100
      6 S           -0.9180     0.8780     0.0710 ss         1 51Q      -0.115200
      7 C            0.6910     0.2040    -0.0070 cc         1 51Q       0.285200
      8 C2           1.7530     1.2140     0.1150 c          1 51Q       0.462700
      9 O1           1.5630     2.4000     0.2800 o          1 51Q      -0.505000
     10 N2           3.0010     0.6590     0.0200 ns         1 51Q      -0.424400
     11 C1           3.1730    -0.6710    -0.1690 cc         1 51Q       0.605200
     12 O            4.4310    -1.0470    -0.2380 oh         1 51Q      -0.634600
     13 N1           2.2030    -1.5130    -0.2730 nd         1 51Q      -0.502700
     14 N            0.9330    -1.0470    -0.1870 nd         1 51Q      -0.337700
     15 H2          -1.5870    -1.2420    -0.8080 h1         1 51Q       0.073700
     16 H3          -0.8810    -1.7240     1.5480 hc         1 51Q       0.028367
     17 H4          -2.2750    -0.8180     2.1470 hc         1 51Q       0.028367
     18 H5          -2.5120    -2.3020     1.2220 hc         1 51Q       0.028367
     19 H6           3.8100     1.2670     0.1000 hn         1 51Q       0.329500
     20 H8           4.4760    -2.0070    -0.3570 ho         1 51Q       0.506000
@<TRIPOS>BOND
     1     1     2 1   
     2     2     3 1   
     3     2     4 1   
     4     4     5 1   
     5     4     6 1   
     6     4    15 1   
     7     5    16 1   
     8     5    17 1   
     9     5    18 1   
    10     6     7 1   
    11     7     8 1   
    12     7    14 2   
    13     8     9 2   
    14     8    10 1   
    15    10    11 1   
    16    10    19 1   
    17    11    12 1   
    18    11    13 2   
    19    12    20 1   
    20    13    14 1   
@<TRIPOS>SUBSTRUCTURE
     1 51Q         1 TEMP              0 ****  ****    0 ROOT
