@<TRIPOS>MOLECULE
51R
   17    17     1     0     0
SMALL
No Charge or Current Charge


@<TRIPOS>ATOM
      1 CG          -0.2170    -1.5710     0.0450 ca         1 51R      -0.109000
      2 CD1         -1.5850    -1.8920     0.0580 ca         1 51R      -0.075000
      3 CE1         -2.5490    -0.8710     0.0210 ca         1 51R      -0.154000
      4 CD2          0.2030    -0.2230    -0.0100 ca         1 51R      -0.151300
      5 CE2         -0.7800     0.7930    -0.0370 ca         1 51R      -0.140000
      6 CZ          -2.1480     0.4720    -0.0250 ca         1 51R       0.295000
      7 NH2         -3.0890     1.4670    -0.0560 nv         1 51R      -1.077000
      8 CM           1.6960     0.1330    -0.0130 c3         1 51R       0.353300
      9 F3           2.1590     0.3150     1.2440 f          1 51R      -0.115000
     10 F1           2.4560    -0.8330    -0.5780 f          1 51R      -0.115000
     11 F2           1.9510     1.2720    -0.6970 f          1 51R      -0.115000
     12 H1           0.5150    -2.3760     0.0810 ha         1 51R       0.132000
     13 H2          -1.8980    -2.9340     0.0980 ha         1 51R       0.118000
     14 H3          -3.6050    -1.1260     0.0320 ha         1 51R       0.116000
     15 H4          -0.4810     1.8380    -0.0650 ha         1 51R       0.126000
     16 H5          -4.0710     1.2310    -0.1930 hn         1 51R       0.455500
     17 H6          -2.8080     2.4290    -0.2370 hn         1 51R       0.455500
@<TRIPOS>BOND
     1     1     2 ar  
     2     1     4 ar  
     3     1    12 1   
     4     2     3 ar  
     5     2    13 1   
     6     3     6 ar  
     7     3    14 1   
     8     4     5 ar  
     9     4     8 1   
    10     5     6 ar  
    11     5    15 1   
    12     6     7 1   
    13     7    16 1   
    14     7    17 1   
    15     8     9 1   
    16     8    10 1   
    17     8    11 1   
@<TRIPOS>SUBSTRUCTURE
     1 51R         1 TEMP              0 ****  ****    0 ROOT
