@<TRIPOS>MOLECULE
51R
   17    17     1     0     0
SMALL
abcg2


@<TRIPOS>ATOM
      1 CG          -0.2080    -1.5840    -0.0340 ca         1 51R      -0.109000
      2 CD1         -1.5670    -1.8760    -0.0260 ca         1 51R      -0.075000
      3 CE1         -2.5150    -0.8710     0.0080 ca         1 51R      -0.154000
      4 CD2          0.1790    -0.2520    -0.0110 ca         1 51R      -0.151300
      5 CE2         -0.7610     0.7700     0.0240 ca         1 51R      -0.140000
      6 CZ          -2.1270     0.4770     0.0350 ca         1 51R       0.295000
      7 NH2         -3.0630     1.4780     0.1230 nv         1 51R      -1.077000
      8 CM           1.6260     0.1310    -0.0080 c3         1 51R       0.353300
      9 F3           1.9690     0.7700     1.1220 f          1 51R      -0.115000
     10 F1           2.4430    -0.9200    -0.1210 f          1 51R      -0.115000
     11 F2           1.9240     0.9650    -1.0160 f          1 51R      -0.115000
     12 H1           0.5150    -2.3860    -0.0610 ha         1 51R       0.132000
     13 H2          -1.8900    -2.9090    -0.0470 ha         1 51R       0.118000
     14 H3          -3.5690    -1.1210     0.0150 ha         1 51R       0.116000
     15 H4          -0.4460     1.8080     0.0420 ha         1 51R       0.126000
     16 H5          -3.9900     1.2500    -0.1960 hn         1 51R       0.455500
     17 H6          -2.7700     2.3930    -0.1800 hn         1 51R       0.455500
@<TRIPOS>BOND
     1     1     2 ar  
     2     1     4 ar  
     3     1    12 1   
     4     2     3 ar  
     5     2    13 1   
     6     3     6 ar  
     7     3    14 1   
     8     4     5 ar  
     9     4     8 1   
    10     5     6 ar  
    11     5    15 1   
    12     6     7 1   
    13     7    16 1   
    14     7    17 1   
    15     8     9 1   
    16     8    10 1   
    17     8    11 1   
@<TRIPOS>SUBSTRUCTURE
     1 51R         1 TEMP              0 ****  ****    0 ROOT
