@<TRIPOS>MOLECULE
51S
   20    20     1     0     0
SMALL
abcg2


@<TRIPOS>ATOM
      1 CG          -1.6250    -0.0620     0.0130 ca         1 51S      -0.115300
      2 CD1         -1.1920     1.2570    -0.0530 ca         1 51S      -0.074000
      3 CE1          0.1600     1.5680    -0.0900 ca         1 51S      -0.173000
      4 CD2         -0.6470    -1.0550     0.0300 ca         1 51S      -0.074000
      5 CE2          0.7130    -0.7770    -0.0130 ca         1 51S      -0.131300
      6 CZ           1.1300     0.5660    -0.0710 ca         1 51S       0.277000
      7 CM           1.7280    -1.8820    -0.0100 c3         1 51S      -0.040800
      8 CN          -3.0850    -0.4100     0.0830 c3         1 51S      -0.037800
      9 NH2          2.4770     0.8800    -0.1700 nv         1 51S      -1.063000
     10 H1          -1.9170     2.0620    -0.0720 ha         1 51S       0.108000
     11 H2           0.4690     2.6070    -0.1380 ha         1 51S       0.109000
     12 H3          -0.9560    -2.0950     0.0770 ha         1 51S       0.106000
     13 H4           2.3730    -1.8380    -0.8910 hc         1 51S       0.038367
     14 H5           2.3830    -1.8360     0.8650 hc         1 51S       0.038367
     15 H6           1.2470    -2.8590    -0.0010 hc         1 51S       0.038367
     16 H7          -3.3690    -0.7510     1.0820 hc         1 51S       0.038033
     17 H8          -3.7110     0.4490    -0.1550 hc         1 51S       0.038033
     18 H9          -3.3440    -1.2110    -0.6110 hc         1 51S       0.038033
     19 H10          2.7030     1.8310     0.0740 hn         1 51S       0.439500
     20 H11          3.1070     0.2410     0.2880 hn         1 51S       0.439500
@<TRIPOS>BOND
     1     1     2 ar  
     2     1     4 ar  
     3     1     8 1   
     4     2     3 ar  
     5     2    10 1   
     6     3     6 ar  
     7     3    11 1   
     8     4     5 ar  
     9     4    12 1   
    10     5     6 ar  
    11     5     7 1   
    12     6     9 1   
    13     7    13 1   
    14     7    14 1   
    15     7    15 1   
    16     8    16 1   
    17     8    17 1   
    18     8    18 1   
    19     9    19 1   
    20     9    20 1   
@<TRIPOS>SUBSTRUCTURE
     1 51S         1 TEMP              0 ****  ****    0 ROOT
