@<TRIPOS>MOLECULE
51S
   20    20     1     0     0
SMALL
No Charge or Current Charge


@<TRIPOS>ATOM
      1 CG          -1.6200    -0.0630     0.0230 ca         1 51S      -0.115300
      2 CD1         -1.2070     1.2800    -0.0030 ca         1 51S      -0.074000
      3 CE1          0.1620     1.5950    -0.0330 ca         1 51S      -0.173000
      4 CD2         -0.6530    -1.0860     0.0220 ca         1 51S      -0.074000
      5 CE2          0.7230    -0.7780    -0.0080 ca         1 51S      -0.131300
      6 CZ           1.1270     0.5770    -0.0360 ca         1 51S       0.277000
      7 CM           1.7440    -1.9150    -0.0090 c3         1 51S      -0.040800
      8 CN          -3.1010    -0.4100     0.0590 c3         1 51S      -0.037800
      9 NH2          2.4540     0.9240    -0.0650 nv         1 51S      -1.063000
     10 H1          -1.9440     2.0810     0.0010 ha         1 51S       0.108000
     11 H2           0.4690     2.6370    -0.0540 ha         1 51S       0.109000
     12 H3          -0.9750    -2.1250     0.0460 ha         1 51S       0.106000
     13 H4           2.3800    -1.8750    -0.9010 hc         1 51S       0.038367
     14 H5           2.3930    -1.8640     0.8730 hc         1 51S       0.038367
     15 H6           1.2590    -2.8990     0.0010 hc         1 51S       0.038367
     16 H7          -3.4500    -0.5220     1.0930 hc         1 51S       0.038033
     17 H8          -3.7070     0.3700    -0.4170 hc         1 51S       0.038033
     18 H9          -3.3050    -1.3500    -0.4670 hc         1 51S       0.038033
     19 H10          2.7290     1.8970     0.0520 hn         1 51S       0.439500
     20 H11          3.1670     0.2090     0.0590 hn         1 51S       0.439500
@<TRIPOS>BOND
     1     1     2 ar  
     2     1     4 ar  
     3     1     8 1   
     4     2     3 ar  
     5     2    10 1   
     6     3     6 ar  
     7     3    11 1   
     8     4     5 ar  
     9     4    12 1   
    10     5     6 ar  
    11     5     7 1   
    12     6     9 1   
    13     7    13 1   
    14     7    14 1   
    15     7    15 1   
    16     8    16 1   
    17     8    17 1   
    18     8    18 1   
    19     9    19 1   
    20     9    20 1   
@<TRIPOS>SUBSTRUCTURE
     1 51S         1 TEMP              0 ****  ****    0 ROOT
