@<TRIPOS>MOLECULE
51T
   23    23     1     0     0
SMALL
bcc


@<TRIPOS>ATOM
      1 N           26.4930    19.7560   -14.9640 n8         1 51T      -0.898800
      2 CA          25.8410    18.5080   -14.6090 c3         1 51T       0.024500
      3 C           25.5370    17.6470   -15.8660 c          1 51T       0.931600
      4 O           24.7640    16.6840   -15.6970 o          1 51T      -0.829300
      5 CB          24.5610    18.7840   -13.8080 c3         1 51T      -0.006100
      6 CG          24.8270    19.5730   -12.5580 ca         1 51T      -0.125300
      7 CD1         25.2620    18.9600   -11.3930 ca         1 51T       0.153900
      8 CD2         24.6910    20.9520   -12.4680 ca         1 51T       0.191900
      9 CE1         25.5290    19.6540   -10.2280 ca         1 51T      -0.044100
     10 CE2         24.9500    21.6860   -11.3280 ca         1 51T      -0.224000
     11 CZ          25.3800    21.0340   -10.1780 ca         1 51T       0.135100
     12 OH          25.6270    21.7600    -9.0780 oh         1 51T      -0.495100
     13 F2          25.4320    17.6340   -11.3720 f          1 51T      -0.116900
     14 F3          25.9300    18.9870    -9.1330 f          1 51T      -0.147900
     15 F6          24.2620    21.6260   -13.5440 f          1 51T      -0.119900
     16 H1          27.1340    20.0410   -14.2360 hn         1 51T       0.332300
     17 H2          27.0430    19.5930   -15.7980 hn         1 51T       0.332300
     18 H4          26.4880    17.8750   -13.9780 h1         1 51T       0.004700
     19 H6          23.8560    19.3270   -14.4390 hc         1 51T       0.069700
     20 H7          24.0850    17.8390   -13.5510 hc         1 51T       0.069700
     21 H8          24.8180    22.7600   -11.3240 ha         1 51T       0.158000
     22 H9          25.9050    21.2060    -8.3390 ho         1 51T       0.433000
     23 O1          26.1180    17.9630   -16.9220 o          1 51T      -0.829300
@<TRIPOS>BOND
     1     1     2 1   
     2     1    16 1   
     3     1    17 1   
     4     2     3 1   
     5     2     5 1   
     6     2    18 1   
     7     3     4 1   
     8     3    23 1   
     9     5     6 1   
    10     5    19 1   
    11     5    20 1   
    12     6     7 ar  
    13     6     8 ar  
    14     7     9 ar  
    15     7    13 1   
    16     8    10 ar  
    17     8    15 1   
    18     9    11 ar  
    19     9    14 1   
    20    10    11 ar  
    21    10    21 1   
    22    11    12 1   
    23    12    22 1   
@<TRIPOS>SUBSTRUCTURE
     1 51T         1 TEMP              0 ****  ****    0 ROOT
