@<TRIPOS>MOLECULE
51U
   54    56     1     0     0
SMALL
abcg2


@<TRIPOS>ATOM
      1 N1           3.0130     1.7030     0.9510 n8         1 51U      -0.981200
      2 C2           2.8140     0.3660     0.4370 c3         1 51U       0.100500
      3 C3           1.3240     0.1400     0.2280 c          1 51U       0.618100
      4 O1           0.5960     1.0550    -0.1380 o          1 51U      -0.605100
      5 C1           3.5270     0.0680    -0.9050 c3         1 51U      -0.076100
      6 C17          5.0160     0.2160    -0.7900 ca         1 51U      -0.087300
      7 C18          5.7880    -0.8250    -0.2770 ca         1 51U      -0.110000
      8 C23          5.6540     1.4020    -1.1460 ca         1 51U      -0.110000
      9 C19          7.1610    -0.6890    -0.1270 ca         1 51U      -0.106000
     10 C22          7.0290     1.5430    -0.9980 ca         1 51U      -0.106000
     11 C20          7.7860     0.4980    -0.4870 ca         1 51U      -0.108000
     12 N2           0.8480    -1.1020     0.3990 n          1 51U      -0.401800
     13 C7          -0.5600    -1.3720     0.1670 c5         1 51U       0.031700
     14 C8          -1.4400    -0.4880     1.0420 c          1 51U       0.600100
     15 O2          -1.1690    -0.2780     2.2140 o          1 51U      -0.593100
     16 C6          -0.7140    -2.8530     0.5460 c5         1 51U      -0.085400
     17 C5           0.6860    -3.4220     0.3480 c5         1 51U      -0.094400
     18 C4           1.5850    -2.2890     0.8190 c5         1 51U       0.108000
     19 N3          -2.5540    -0.0390     0.4520 ns         1 51U      -0.495900
     20 C9          -3.5190     0.7950     1.1430 c3         1 51U       0.151300
     21 C10         -4.7770     0.9190     0.3300 ca         1 51U      -0.110300
     22 C11         -5.6400    -0.1680     0.2090 ca         1 51U      -0.098000
     23 C12         -6.8030    -0.0930    -0.5510 ca         1 51U      -0.080300
     24 C13         -7.7410    -1.2630    -0.6370 c3         1 51U      -0.046800
     25 C14         -7.0900     1.1050    -1.2040 ca         1 51U      -0.104000
     26 C15         -6.2400     2.1950    -1.0940 ca         1 51U      -0.110000
     27 C16         -5.0840     2.1040    -0.3290 ca         1 51U      -0.097000
     28 HN1          4.0000     1.8600     1.1100 hn         1 51U       0.408500
     29 HN1A         2.7200     2.3880     0.2640 hn         1 51U       0.408500
     30 H2           3.1970    -0.3270     1.1910 h1         1 51U       0.072700
     31 H1           3.2850    -0.9450    -1.2390 hc         1 51U       0.058200
     32 H1A          3.1340     0.7490    -1.6640 hc         1 51U       0.058200
     33 H18          5.3100    -1.7570     0.0040 ha         1 51U       0.110000
     34 H23          5.0740     2.2210    -1.5550 ha         1 51U       0.110000
     35 H19          7.7430    -1.5120     0.2680 ha         1 51U       0.114500
     36 H22          7.5060     2.4700    -1.2870 ha         1 51U       0.114500
     37 H20          8.8570     0.6070    -0.3740 ha         1 51U       0.114000
     38 H7          -0.8010    -1.2230    -0.8910 h1         1 51U       0.061700
     39 H6          -1.4730    -3.3440    -0.0600 hc         1 51U       0.063200
     40 H6A         -1.0070    -2.9480     1.5930 hc         1 51U       0.063200
     41 H5           0.8710    -3.6280    -0.7080 hc         1 51U       0.054700
     42 H5A          0.8550    -4.3410     0.9070 hc         1 51U       0.054700
     43 H4           2.5730    -2.3330     0.3640 h1         1 51U       0.051700
     44 H4A          1.7100    -2.3070     1.9060 h1         1 51U       0.051700
     45 HN3         -2.6590    -0.1520    -0.5440 hn         1 51U       0.317500
     46 H9          -3.7400     0.3460     2.1140 h1         1 51U       0.060200
     47 H9A         -3.0990     1.7860     1.3380 h1         1 51U       0.060200
     48 H11         -5.4000    -1.0930     0.7230 ha         1 51U       0.114000
     49 H13         -8.4480    -1.2560     0.1940 hc         1 51U       0.042367
     50 H13A        -8.3220    -1.2420    -1.5580 hc         1 51U       0.042367
     51 H13B        -7.2040    -2.2110    -0.5980 hc         1 51U       0.042367
     52 H14         -7.9890     1.1840    -1.8060 ha         1 51U       0.111000
     53 H15         -6.4750     3.1170    -1.6090 ha         1 51U       0.115000
     54 H16         -4.4200     2.9550    -0.2460 ha         1 51U       0.118000
@<TRIPOS>BOND
     1     1     2 1   
     2     1    28 1   
     3     1    29 1   
     4     2     3 1   
     5     2     5 1   
     6     2    30 1   
     7     3     4 2   
     8     3    12 1   
     9     5     6 1   
    10     5    31 1   
    11     5    32 1   
    12     6     7 ar  
    13     6     8 ar  
    14     7     9 ar  
    15     7    33 1   
    16     8    10 ar  
    17     8    34 1   
    18     9    11 ar  
    19     9    35 1   
    20    10    11 ar  
    21    10    36 1   
    22    11    37 1   
    23    12    13 1   
    24    12    18 1   
    25    13    14 1   
    26    13    16 1   
    27    13    38 1   
    28    14    15 2   
    29    14    19 1   
    30    16    17 1   
    31    16    39 1   
    32    16    40 1   
    33    17    18 1   
    34    17    41 1   
    35    17    42 1   
    36    18    43 1   
    37    18    44 1   
    38    19    20 1   
    39    19    45 1   
    40    20    21 1   
    41    20    46 1   
    42    20    47 1   
    43    21    22 ar  
    44    21    27 ar  
    45    22    23 ar  
    46    22    48 1   
    47    23    24 1   
    48    23    25 ar  
    49    24    49 1   
    50    24    50 1   
    51    24    51 1   
    52    25    26 ar  
    53    25    52 1   
    54    26    27 ar  
    55    26    53 1   
    56    27    54 1   
@<TRIPOS>SUBSTRUCTURE
     1 51U         1 TEMP              0 ****  ****    0 ROOT
