@<TRIPOS>MOLECULE
51U
   54    56     1     0     0
SMALL
No Charge or Current Charge


@<TRIPOS>ATOM
      1 N1           3.5730     1.7540     1.2130 n8         1 51U      -0.981200
      2 C2           3.0790     0.5510     0.4570 c3         1 51U       0.100500
      3 C3           1.5250     0.4990     0.1730 c          1 51U       0.618100
      4 O1           0.8890     1.5270    -0.0480 o          1 51U      -0.605100
      5 C1           3.8840     0.3980    -0.8610 c3         1 51U      -0.076100
      6 C17          5.3870     0.2500    -0.6390 ca         1 51U      -0.087300
      7 C18          5.9050    -0.9300    -0.0690 ca         1 51U      -0.110000
      8 C23          6.2700     1.2860    -1.0050 ca         1 51U      -0.110000
      9 C19          7.2880    -1.0710     0.1360 ca         1 51U      -0.106000
     10 C22          7.6530     1.1450    -0.7990 ca         1 51U      -0.106000
     11 C20          8.1630    -0.0330    -0.2280 ca         1 51U      -0.108000
     12 N2           0.8660    -0.7550     0.1790 n          1 51U      -0.401800
     13 C7          -0.6110    -0.8890     0.0010 c5         1 51U       0.031700
     14 C8          -1.4910    -0.0820     1.0130 c          1 51U       0.600100
     15 O2          -1.1680     0.3450     2.1150 o          1 51U      -0.593100
     16 C6          -0.8200    -2.4090     0.2800 c5         1 51U      -0.085400
     17 C5           0.4930    -3.0260    -0.2550 c5         1 51U      -0.094400
     18 C4           1.5530    -2.0570     0.3230 c5         1 51U       0.108000
     19 N3          -2.7500     0.0910     0.4820 ns         1 51U      -0.495900
     20 C9          -3.8350     0.7930     1.1600 c3         1 51U       0.151300
     21 C10         -5.1120     0.7410     0.3370 ca         1 51U      -0.110300
     22 C11         -5.9920    -0.3510     0.4630 ca         1 51U      -0.098000
     23 C12         -7.1740    -0.4100    -0.3010 ca         1 51U      -0.080300
     24 C13         -8.1210    -1.5920    -0.1560 c3         1 51U      -0.046800
     25 C14         -7.4750     0.6360    -1.1940 ca         1 51U      -0.104000
     26 C15         -6.5990     1.7270    -1.3250 ca         1 51U      -0.110000
     27 C16         -5.4200     1.7790    -0.5630 ca         1 51U      -0.097000
     28 HN1          4.5980     1.7730     1.1560 hn         1 51U       0.408500
     29 HN1A         3.2870     2.6010     0.7070 hn         1 51U       0.408500
     30 H2           3.3100    -0.3190     1.0860 h1         1 51U       0.072700
     31 H1           3.5150    -0.4760    -1.4110 hc         1 51U       0.058200
     32 H1A          3.6730     1.2580    -1.5090 hc         1 51U       0.058200
     33 H18          5.2360    -1.7400     0.2130 ha         1 51U       0.110000
     34 H23          5.8860     2.2020    -1.4500 ha         1 51U       0.110000
     35 H19          7.6820    -1.9840     0.5770 ha         1 51U       0.114500
     36 H22          8.3300     1.9480    -1.0830 ha         1 51U       0.114500
     37 H20          9.2340    -0.1430    -0.0690 ha         1 51U       0.114000
     38 H7          -0.8920    -0.6230    -1.0270 h1         1 51U       0.061700
     39 H6          -1.7110    -2.8090    -0.2180 hc         1 51U       0.063200
     40 H6A         -0.9310    -2.6110     1.3530 hc         1 51U       0.063200
     41 H5           0.5130    -3.0240    -1.3520 hc         1 51U       0.054700
     42 H5A          0.6450    -4.0590     0.0750 hc         1 51U       0.054700
     43 H4           2.4940    -2.1150    -0.2380 h1         1 51U       0.051700
     44 H4A          1.7600    -2.2700     1.3800 h1         1 51U       0.051700
     45 HN3         -2.9300    -0.3000    -0.4350 hn         1 51U       0.317500
     46 H9          -4.0050     0.3280     2.1410 h1         1 51U       0.060200
     47 H9A         -3.5370     1.8370     1.3260 h1         1 51U       0.060200
     48 H11         -5.7570    -1.1570     1.1550 ha         1 51U       0.114000
     49 H13         -8.8460    -1.4150     0.6470 hc         1 51U       0.042367
     50 H13A        -8.6820    -1.7710    -1.0810 hc         1 51U       0.042367
     51 H13B        -7.5760    -2.5140     0.0810 hc         1 51U       0.042367
     52 H14         -8.3860     0.6030    -1.7860 ha         1 51U       0.111000
     53 H15         -6.8340     2.5310    -2.0180 ha         1 51U       0.115000
     54 H16         -4.7460     2.6270    -0.6720 ha         1 51U       0.118000
@<TRIPOS>BOND
     1     1     2 1   
     2     1    28 1   
     3     1    29 1   
     4     2     3 1   
     5     2     5 1   
     6     2    30 1   
     7     3     4 2   
     8     3    12 1   
     9     5     6 1   
    10     5    31 1   
    11     5    32 1   
    12     6     7 ar  
    13     6     8 ar  
    14     7     9 ar  
    15     7    33 1   
    16     8    10 ar  
    17     8    34 1   
    18     9    11 ar  
    19     9    35 1   
    20    10    11 ar  
    21    10    36 1   
    22    11    37 1   
    23    12    13 1   
    24    12    18 1   
    25    13    14 1   
    26    13    16 1   
    27    13    38 1   
    28    14    15 2   
    29    14    19 1   
    30    16    17 1   
    31    16    39 1   
    32    16    40 1   
    33    17    18 1   
    34    17    41 1   
    35    17    42 1   
    36    18    43 1   
    37    18    44 1   
    38    19    20 1   
    39    19    45 1   
    40    20    21 1   
    41    20    46 1   
    42    20    47 1   
    43    21    22 ar  
    44    21    27 ar  
    45    22    23 ar  
    46    22    48 1   
    47    23    24 1   
    48    23    25 ar  
    49    24    49 1   
    50    24    50 1   
    51    24    51 1   
    52    25    26 ar  
    53    25    52 1   
    54    26    27 ar  
    55    26    53 1   
    56    27    54 1   
@<TRIPOS>SUBSTRUCTURE
     1 51U         1 TEMP              0 ****  ****    0 ROOT
