@<TRIPOS>MOLECULE
51V
   17    17     1     0     0
SMALL
abcg2


@<TRIPOS>ATOM
      1 CG           1.8930     0.7190     0.0730 ca         1 51V      -0.151000
      2 CD1          0.6660     1.3730     0.0820 ca         1 51V      -0.073000
      3 CE1         -0.5370     0.6830    -0.0020 ca         1 51V      -0.135300
      4 CD2          1.9130    -0.6650    -0.0210 ca         1 51V      -0.075000
      5 CE2          0.7260    -1.3770    -0.0990 ca         1 51V      -0.178000
      6 CZ          -0.5080    -0.7210    -0.0920 ca         1 51V       0.285000
      7 CM          -1.8480     1.4130    -0.0050 c3         1 51V      -0.040800
      8 NH2         -1.6840    -1.4360    -0.2320 nv         1 51V      -1.068000
      9 H1           2.8130     1.2840     0.1400 ha         1 51V       0.113000
     10 H2           0.6390     2.4540     0.1510 ha         1 51V       0.107000
     11 H3           2.8550    -1.1990    -0.0280 ha         1 51V       0.109000
     12 H4           0.7510    -2.4590    -0.1640 ha         1 51V       0.109000
     13 H5          -2.4340     1.1880    -0.9000 hc         1 51V       0.038033
     14 H6          -2.4700     1.1460     0.8550 hc         1 51V       0.038033
     15 H7          -1.6960     2.4900     0.0300 hc         1 51V       0.038033
     16 H8          -1.6050    -2.4220    -0.0370 hn         1 51V       0.442500
     17 H9          -2.4940    -1.0450     0.2220 hn         1 51V       0.442500
@<TRIPOS>BOND
     1     1     2 ar  
     2     1     4 ar  
     3     1     9 1   
     4     2     3 ar  
     5     2    10 1   
     6     3     6 ar  
     7     3     7 1   
     8     4     5 ar  
     9     4    11 1   
    10     5     6 ar  
    11     5    12 1   
    12     6     8 1   
    13     7    13 1   
    14     7    14 1   
    15     7    15 1   
    16     8    16 1   
    17     8    17 1   
@<TRIPOS>SUBSTRUCTURE
     1 51V         1 TEMP              0 ****  ****    0 ROOT
