@<TRIPOS>MOLECULE
51V
   17    17     1     0     0
SMALL
No Charge or Current Charge


@<TRIPOS>ATOM
      1 CG           1.8990     0.7230     0.0560 ca         1 51V      -0.151000
      2 CD1          0.6670     1.3980     0.0680 ca         1 51V      -0.073000
      3 CE1         -0.5440     0.6770     0.0060 ca         1 51V      -0.135300
      4 CD2          1.9330    -0.6780    -0.0180 ca         1 51V      -0.075000
      5 CE2          0.7320    -1.4020    -0.0800 ca         1 51V      -0.178000
      6 CZ          -0.5030    -0.7350    -0.0680 ca         1 51V       0.285000
      7 CM          -1.8690     1.4390     0.0210 c3         1 51V      -0.040800
      8 NH2         -1.6550    -1.4770    -0.1290 nv         1 51V      -1.068000
      9 H1           2.8280     1.2870     0.1040 ha         1 51V       0.113000
     10 H2           0.6550     2.4850     0.1260 ha         1 51V       0.107000
     11 H3           2.8880    -1.2000    -0.0270 ha         1 51V       0.109000
     12 H4           0.7650    -2.4870    -0.1370 ha         1 51V       0.109000
     13 H5          -2.4550     1.2310    -0.8830 hc         1 51V       0.038033
     14 H6          -2.4760     1.1580     0.8900 hc         1 51V       0.038033
     15 H7          -1.7150     2.5240     0.0670 hc         1 51V       0.038033
     16 H8          -1.6120    -2.4910    -0.0380 hn         1 51V       0.442500
     17 H9          -2.5550    -1.0250     0.0120 hn         1 51V       0.442500
@<TRIPOS>BOND
     1     1     2 ar  
     2     1     4 ar  
     3     1     9 1   
     4     2     3 ar  
     5     2    10 1   
     6     3     6 ar  
     7     3     7 1   
     8     4     5 ar  
     9     4    11 1   
    10     5     6 ar  
    11     5    12 1   
    12     6     8 1   
    13     7    13 1   
    14     7    14 1   
    15     7    15 1   
    16     8    16 1   
    17     8    17 1   
@<TRIPOS>SUBSTRUCTURE
     1 51V         1 TEMP              0 ****  ****    0 ROOT
