@<TRIPOS>MOLECULE
51W
   51    53     1     0     0
SMALL
bcc


@<TRIPOS>ATOM
      1 N12          0.5370    -0.3690    -0.5030 nu         1 51W      -0.732300
      2 C13          1.6880    -1.1470    -0.5670 ca         1 51W       0.207600
      3 C15          4.1050    -1.1230    -0.3450 ca         1 51W       0.121600
      4 C17          5.6140     0.7990     0.1600 c          1 51W       0.805100
      5 C20          8.8740     2.3480     0.3850 c5         1 51W      -0.093900
      6 C21          9.2010     0.9420     0.8760 c5         1 51W      -0.093900
      7 C22          8.0160     0.1130     0.3900 c5         1 51W       0.109000
      8 C24          4.1250    -2.4940    -0.6330 ca         1 51W      -0.226000
      9 C26          1.7130    -2.5120    -0.8520 ca         1 51W      -0.184000
     10 N01         -4.9280     5.9360     0.2450 n8         1 51W      -0.886800
     11 C02         -3.8400     4.9700     0.2760 c3         1 51W       0.153800
     12 C03         -4.3080     3.6150    -0.2310 c3         1 51W      -0.100400
     13 C04         -3.1870     2.5900    -0.1990 c3         1 51W       0.230800
     14 C06         -2.8810     0.2360    -0.8110 ca         1 51W       0.785200
     15 C07         -3.3640    -1.0400    -1.2080 ca         1 51W      -0.316700
     16 I08         -5.3840    -1.4200    -1.6020 i          1 51W      -0.164900
     17 C09         -2.4380    -2.0440    -1.3320 ca         1 51W       0.535200
     18 N10         -1.1350    -1.8760    -1.1070 nb         1 51W      -0.796000
     19 C11         -0.7720    -0.6520    -0.7480 ca         1 51W       0.965900
     20 C14          2.8830    -0.4600    -0.3140 ca         1 51W      -0.222000
     21 N16          5.3380    -0.5220    -0.1070 ns         1 51W      -0.488100
     22 N18          6.9180     1.0740     0.3690 n          1 51W      -0.506800
     23 C19          7.3670     2.4450     0.5850 c5         1 51W       0.109000
     24 O23          4.7500     1.6690     0.2030 o          1 51W      -0.634100
     25 C25          2.9410    -3.1590    -0.8780 ca         1 51W      -0.074000
     26 N27         -1.5810     0.3940    -0.5870 nb         1 51W      -0.868000
     27 H121         0.6870     0.5980    -0.2580 hn         1 51W       0.457800
     28 H201         9.4110     3.1260     0.9260 hc         1 51W       0.055700
     29 H202         9.1190     2.4480    -0.6740 hc         1 51W       0.055700
     30 H211        10.1480     0.5600     0.4980 hc         1 51W       0.055700
     31 H212         9.2450     0.9230     1.9670 hc         1 51W       0.055700
     32 H222         8.2040    -0.2950    -0.6090 h1         1 51W       0.049700
     33 H221         7.8100    -0.7220     1.0640 h1         1 51W       0.049700
     34 H241         5.0670    -3.0300    -0.6660 ha         1 51W       0.125000
     35 H261         0.8030    -3.0530    -1.0490 ha         1 51W       0.171000
     36 H012        -4.6200     6.7980     0.6750 hn         1 51W       0.339800
     37 H011        -5.1410     6.1710    -0.7160 hn         1 51W       0.339800
     38 H022        -2.9570     5.2830    -0.2990 h1         1 51W       0.030700
     39 H021        -3.5070     4.8670     1.3120 h1         1 51W       0.030700
     40 H031        -5.1460     3.2740     0.3840 hc         1 51W       0.054200
     41 H032        -4.6800     3.7130    -1.2560 hc         1 51W       0.054200
     42 H042        -2.3610     2.9150    -0.8350 h1         1 51W       0.055700
     43 H041        -2.7860     2.5040     0.8160 h1         1 51W       0.055700
     44 H051        -4.6660     1.1890    -0.7520 hn         1 51W       0.452800
     45 H091        -2.7440    -3.0410    -1.6280 h4         1 51W       0.029100
     46 H141         2.8460     0.5960    -0.0990 ha         1 51W       0.168000
     47 H161         6.1180    -1.1560    -0.1700 hn         1 51W       0.314500
     48 H191         7.1230     2.7820     1.5970 h1         1 51W       0.049700
     49 H192         6.8940     3.1310    -0.1170 h1         1 51W       0.049700
     50 H251         2.9690    -4.2190    -1.0970 ha         1 51W       0.129000
     51 N05         -3.6700     1.3020    -0.6540 nu         1 51W      -0.866900
@<TRIPOS>BOND
     1     1     2 1   
     2     1    19 1   
     3     1    27 1   
     4     2     9 ar  
     5     2    20 ar  
     6     3     8 ar  
     7     3    20 ar  
     8     3    21 1   
     9     4    21 1   
    10     4    22 1   
    11     4    24 2   
    12     5     6 1   
    13     5    23 1   
    14     5    28 1   
    15     5    29 1   
    16     6     7 1   
    17     6    30 1   
    18     6    31 1   
    19     7    22 1   
    20     7    32 1   
    21     7    33 1   
    22     8    25 ar  
    23     8    34 1   
    24     9    25 ar  
    25     9    35 1   
    26    10    11 1   
    27    10    36 1   
    28    10    37 1   
    29    11    12 1   
    30    11    38 1   
    31    11    39 1   
    32    12    13 1   
    33    12    40 1   
    34    12    41 1   
    35    13    42 1   
    36    13    43 1   
    37    13    51 1   
    38    14    15 ar  
    39    14    26 ar  
    40    14    51 1   
    41    15    16 1   
    42    15    17 ar  
    43    17    18 ar  
    44    17    45 1   
    45    18    19 ar  
    46    19    26 ar  
    47    20    46 1   
    48    21    47 1   
    49    22    23 1   
    50    23    48 1   
    51    23    49 1   
    52    25    50 1   
    53    44    51 1   
@<TRIPOS>SUBSTRUCTURE
     1 51W         1 TEMP              0 ****  ****    0 ROOT
