@<TRIPOS>MOLECULE
51W
   51    53     1     0     0
SMALL
No Charge or Current Charge


@<TRIPOS>ATOM
      1 N12          0.5590    -0.2450    -0.3490 nu         1 51W      -0.925900
      2 C13          1.7150    -1.0200    -0.2300 ca         1 51W       0.346000
      3 C15          4.1530    -1.0880     0.0000 ca         1 51W       0.029000
      4 C17          5.8560     0.8370     0.1130 c          1 51W       0.671100
      5 C20          9.3630     2.0050    -0.0470 c5         1 51W      -0.093900
      6 C21          9.5150     0.6720     0.7280 c5         1 51W      -0.093900
      7 C22          8.2310    -0.0870     0.3070 c5         1 51W       0.109000
      8 C24          4.0940    -2.4920     0.0460 ca         1 51W      -0.208000
      9 C26          1.6760    -2.4240    -0.1650 ca         1 51W      -0.166000
     10 N01         -5.7770     5.6800     0.6080 n8         1 51W      -0.997200
     11 C02         -4.5460     4.8670     0.6050 c3         1 51W       0.153800
     12 C03         -4.7390     3.5560    -0.1780 c3         1 51W      -0.100400
     13 C04         -3.4670     2.6870    -0.1860 c3         1 51W       0.230800
     14 C06         -2.7890     0.4140    -1.1750 ca         1 51W       0.456900
     15 C07         -3.1580    -0.7240    -1.9170 ca         1 51W      -0.049000
     16 I08         -5.1570    -0.9650    -2.7590 i          1 51W      -0.302000
     17 C09         -2.1740    -1.7090    -2.0980 ca         1 51W       0.206900
     18 N10         -0.9370    -1.5710    -1.5830 nb         1 51W      -0.270000
     19 C11         -0.6990    -0.4450    -0.8870 ca         1 51W       0.439900
     20 C14          2.9500    -0.3600    -0.1350 ca         1 51W      -0.204000
     21 N16          5.4360    -0.4870     0.0920 ns         1 51W      -0.162000
     22 N18          7.2490     1.0180     0.2100 n          1 51W      -0.439800
     23 C19          7.8770     2.3560     0.2210 c5         1 51W       0.109000
     24 O23          5.1020     1.8000     0.0530 o          1 51W      -0.634100
     25 C25          2.8630    -3.1600    -0.0310 ca         1 51W      -0.056000
     26 N27         -1.5570     0.5570    -0.6600 nb         1 51W      -0.342000
     27 H121         0.6830     0.7170    -0.0390 hn         1 51W       0.513000
     28 H201        10.0480     2.7840     0.3050 hc         1 51W       0.055700
     29 H202         9.5480     1.8630    -1.1180 hc         1 51W       0.055700
     30 H211        10.4290     0.1270     0.4660 hc         1 51W       0.055700
     31 H212         9.5340     0.8450     1.8110 hc         1 51W       0.055700
     32 H222         8.3560    -0.5800    -0.6670 h1         1 51W       0.049700
     33 H221         7.9470    -0.8430     1.0510 h1         1 51W       0.049700
     34 H241         5.0080    -3.0720     0.1500 ha         1 51W       0.107000
     35 H261         0.7290    -2.9520    -0.1980 ha         1 51W       0.153000
     36 H012        -5.5910     6.5680     1.0900 hn         1 51W       0.395000
     37 H011        -5.9880     5.9700    -0.3550 hn         1 51W       0.395000
     38 H022        -3.7350     5.4550     0.1520 h1         1 51W       0.030700
     39 H021        -4.2720     4.6400     1.6450 h1         1 51W       0.030700
     40 H031        -5.5620     2.9860     0.2690 hc         1 51W       0.054200
     41 H032        -5.0220     3.7890    -1.2120 hc         1 51W       0.054200
     42 H042        -2.6420     3.2570    -0.6360 h1         1 51W       0.055700
     43 H041        -3.1860     2.4480     0.8500 h1         1 51W       0.055700
     44 H051        -4.6230     1.3010    -1.3500 hn         1 51W       0.508000
     45 H091        -2.3770    -2.6190    -2.6610 h4         1 51W       0.029100
     46 H141         2.9580     0.7220    -0.1790 ha         1 51W       0.150000
     47 H161         6.1910    -1.1560     0.1520 hn         1 51W       0.148000
     48 H191         7.7450     2.8360     1.2000 h1         1 51W       0.049700
     49 H192         7.4680     3.0190    -0.5530 h1         1 51W       0.049700
     50 H251         2.8270    -4.2470     0.0180 ha         1 51W       0.111000
     51 N05         -3.6960     1.4470    -0.9450 nu         1 51W      -0.922100
@<TRIPOS>BOND
     1     1     2 1   
     2     1    19 1   
     3     1    27 1   
     4     2     9 ar  
     5     2    20 ar  
     6     3     8 ar  
     7     3    20 ar  
     8     3    21 1   
     9     4    21 1   
    10     4    22 1   
    11     4    24 2   
    12     5     6 1   
    13     5    23 1   
    14     5    28 1   
    15     5    29 1   
    16     6     7 1   
    17     6    30 1   
    18     6    31 1   
    19     7    22 1   
    20     7    32 1   
    21     7    33 1   
    22     8    25 ar  
    23     8    34 1   
    24     9    25 ar  
    25     9    35 1   
    26    10    11 1   
    27    10    36 1   
    28    10    37 1   
    29    11    12 1   
    30    11    38 1   
    31    11    39 1   
    32    12    13 1   
    33    12    40 1   
    34    12    41 1   
    35    13    42 1   
    36    13    43 1   
    37    13    51 1   
    38    14    15 ar  
    39    14    26 ar  
    40    14    51 1   
    41    15    16 1   
    42    15    17 ar  
    43    17    18 ar  
    44    17    45 1   
    45    18    19 ar  
    46    19    26 ar  
    47    20    46 1   
    48    21    47 1   
    49    22    23 1   
    50    23    48 1   
    51    23    49 1   
    52    25    50 1   
    53    44    51 1   
@<TRIPOS>SUBSTRUCTURE
     1 51W         1 TEMP              0 ****  ****    0 ROOT
