@<TRIPOS>MOLECULE
51X
   21    22     1     0     0
SMALL
abcg2


@<TRIPOS>ATOM
      1 C3          -2.8550    -0.0270     0.4670 c          1 51X       0.717000
      2 C4          -2.1350     0.0530    -0.9010 c3         1 51X      -0.059000
      3 C5           0.0440     1.1820    -0.5220 c          1 51X       0.591100
      4 C6           1.4020     0.7170    -0.1490 ca         1 51X      -0.130600
      5 C7           2.5430     1.4300     0.1460 ca         1 51X      -0.060000
      6 C8           3.6820     0.6990     0.4810 ca         1 51X      -0.118500
      7 C9           3.6590    -0.6920     0.5150 ca         1 51X      -0.118500
      8 C10          2.4980    -1.4020     0.2130 ca         1 51X      -0.060000
      9 C11          1.3800    -0.6670    -0.1170 ca         1 51X      -0.130600
     10 C12          0.0090    -1.1060    -0.4740 c          1 51X       0.591100
     11 O           -2.1380    -0.0320     1.4800 o          1 51X      -0.721500
     12 N1          -0.7020     0.0440    -0.7640 n          1 51X      -0.329400
     13 H4          -2.4370    -0.7790    -1.5380 h1         1 51X       0.049700
     14 H5          -2.4280     0.9670    -1.4180 h1         1 51X       0.049700
     15 H6           2.5620     2.5120     0.1210 ha         1 51X       0.127000
     16 H7           4.5990     1.2190     0.7230 ha         1 51X       0.102000
     17 H8           4.5590    -1.2300     0.7830 ha         1 51X       0.102000
     18 H9           2.4810    -2.4830     0.2410 ha         1 51X       0.127000
     19 OXT         -4.0960    -0.0730     0.3960 o          1 51X      -0.721500
     20 O1          -0.4260    -2.2290    -0.5250 o          1 51X      -0.502500
     21 O2          -0.3570     2.3160    -0.6110 o          1 51X      -0.502500
@<TRIPOS>BOND
     1     1     2 1   
     2     1    11 1   
     3     1    19 1   
     4     2    12 1   
     5     2    13 1   
     6     2    14 1   
     7     3     4 1   
     8     3    12 1   
     9     3    21 2   
    10     4     5 ar  
    11     4     9 ar  
    12     5     6 ar  
    13     5    15 1   
    14     6     7 ar  
    15     6    16 1   
    16     7     8 ar  
    17     7    17 1   
    18     8     9 ar  
    19     8    18 1   
    20     9    10 1   
    21    10    12 1   
    22    10    20 2   
@<TRIPOS>SUBSTRUCTURE
     1 51X         1 TEMP              0 ****  ****    0 ROOT
