@<TRIPOS>MOLECULE
51X
   21    22     1     0     0
SMALL
No Charge or Current Charge


@<TRIPOS>ATOM
      1 C3          -3.0960    -0.3740     0.2750 c          1 51X       0.717000
      2 C4          -2.1790     0.2850    -0.7830 c3         1 51X      -0.059000
      3 C5           0.1340     1.3060    -0.4900 c          1 51X       0.591100
      4 C6           1.4820     0.7570    -0.1580 ca         1 51X      -0.130600
      5 C7           2.7130     1.4120    -0.0160 ca         1 51X      -0.060000
      6 C8           3.8430     0.6300     0.3060 ca         1 51X      -0.118500
      7 C9           3.7260    -0.7710     0.4770 ca         1 51X      -0.118500
      8 C10          2.4770    -1.4120     0.3290 ca         1 51X      -0.060000
      9 C11          1.3670    -0.6170     0.0100 ca         1 51X      -0.130600
     10 C12         -0.0590    -1.0010    -0.2090 c          1 51X       0.591100
     11 O           -2.9370    -0.0670     1.4490 o          1 51X      -0.721500
     12 N1          -0.7180     0.1980    -0.4950 n          1 51X      -0.329400
     13 H4          -2.3710    -0.1950    -1.7510 h1         1 51X       0.049700
     14 H5          -2.4790     1.3360    -0.8650 h1         1 51X       0.049700
     15 H6           2.7960     2.4890    -0.1490 ha         1 51X       0.127000
     16 H7           4.8130     1.1080     0.4230 ha         1 51X       0.102000
     17 H8           4.6070    -1.3600     0.7240 ha         1 51X       0.102000
     18 H9           2.3790    -2.4880     0.4580 ha         1 51X       0.127000
     19 OXT         -3.9460    -1.1660    -0.1070 o          1 51X      -0.721500
     20 O1          -0.5440    -2.1240    -0.1660 o          1 51X      -0.502500
     21 O2          -0.1630     2.4720    -0.7120 o          1 51X      -0.502500
@<TRIPOS>BOND
     1     1     2 1   
     2     1    11 1   
     3     1    19 1   
     4     2    12 1   
     5     2    13 1   
     6     2    14 1   
     7     3     4 1   
     8     3    12 1   
     9     3    21 2   
    10     4     5 ar  
    11     4     9 ar  
    12     5     6 ar  
    13     5    15 1   
    14     6     7 ar  
    15     6    16 1   
    16     7     8 ar  
    17     7    17 1   
    18     8     9 ar  
    19     8    18 1   
    20     9    10 1   
    21    10    12 1   
    22    10    20 2   
@<TRIPOS>SUBSTRUCTURE
     1 51X         1 TEMP              0 ****  ****    0 ROOT
