@<TRIPOS>MOLECULE
51Y
   35    36     1     0     0
SMALL
No Charge or Current Charge


@<TRIPOS>ATOM
      1 C7           0.5460    -1.5080    -0.4670 ca         1 51Y      -0.210000
      2 C6           0.1350    -0.1650    -0.4590 ca         1 51Y       0.372000
      3 C1           1.8210    -1.8730    -0.0170 ca         1 51Y      -0.013000
      4 C4           1.0320     0.8460    -0.0330 ca         1 51Y      -0.165300
      5 C3           2.3150     0.4670     0.4380 ca         1 51Y       0.206000
      6 C2           2.7070    -0.8890     0.4470 ca         1 51Y      -0.085000
      7 N8          -1.1530     0.1540    -0.9080 nu         1 51Y      -0.960200
      8 C9          -2.2180    -0.5800    -0.1430 c5         1 51Y       0.236500
      9 C10         -3.3530     0.4480     0.3350 c5         1 51Y       0.166000
     10 O11         -3.7620     0.1350     1.6700 oh         1 51Y      -0.655000
     11 C12         -2.9880     1.9560     0.3720 c3         1 51Y      -0.107100
     12 C13         -4.5240     0.1450    -0.6510 c5         1 51Y      -0.115400
     13 C14         -4.3970    -1.3860    -0.8560 c5         1 51Y      -0.072400
     14 C15         -2.8990    -1.4760    -1.2320 c5         1 51Y      -0.100400
     15 Cl1          3.4390     1.7030     1.0350 cl         1 51Y      -0.185000
     16 C17          4.0050    -1.2850     0.9170 cg         1 51Y       0.340000
     17 N18          5.0570    -1.6210     1.2960 n1         1 51Y      -0.460000
     18 H1          -0.1240    -2.2810    -0.8290 ha         1 51Y       0.125000
     19 H2           2.1160    -2.9210    -0.0260 ha         1 51Y       0.125000
     20 H3          -0.1960     2.5540    -0.7210 hc         1 51Y       0.046367
     21 H4           0.3730     2.6820     0.9490 hc         1 51Y       0.046367
     22 H5           1.4690     2.9600    -0.4130 hc         1 51Y       0.046367
     23 H6          -1.2870     1.1480    -1.0720 hn         1 51Y       0.487000
     24 H7          -1.8460    -1.1710     0.7090 h1         1 51Y       0.085700
     25 H8          -4.5570     0.6780     1.8570 ho         1 51Y       0.447000
     26 H9          -3.8260     2.5570     0.7460 hc         1 51Y       0.045700
     27 H10         -2.1310     2.1420     1.0300 hc         1 51Y       0.045700
     28 H11         -2.7460     2.3420    -0.6250 hc         1 51Y       0.045700
     29 H12         -5.5030     0.4300    -0.2490 hc         1 51Y       0.047200
     30 H13         -4.4030     0.6820    -1.6000 hc         1 51Y       0.047200
     31 H14         -4.6310    -1.9510     0.0540 hc         1 51Y       0.047700
     32 H15         -5.0500    -1.7570    -1.6540 hc         1 51Y       0.047700
     33 H16         -2.7420    -1.1070    -2.2530 hc         1 51Y       0.058700
     34 H17         -2.5300    -2.5070    -1.2060 hc         1 51Y       0.058700
     35 C5           0.6440     2.3340    -0.0550 c3         1 51Y      -0.044800
@<TRIPOS>BOND
     1     1     2 ar  
     2     1     3 ar  
     3     1    18 1   
     4     2     4 ar  
     5     2     7 1   
     6     3     6 ar  
     7     3    19 1   
     8     4     5 ar  
     9     4    35 1   
    10     5     6 ar  
    11     5    15 1   
    12     6    16 1   
    13     7     8 1   
    14     7    23 1   
    15     8     9 1   
    16     8    14 1   
    17     8    24 1   
    18     9    10 1   
    19     9    11 1   
    20     9    12 1   
    21    10    25 1   
    22    11    26 1   
    23    11    27 1   
    24    11    28 1   
    25    12    13 1   
    26    12    29 1   
    27    12    30 1   
    28    13    14 1   
    29    13    31 1   
    30    13    32 1   
    31    14    33 1   
    32    14    34 1   
    33    16    17 3   
    34    20    35 1   
    35    21    35 1   
    36    22    35 1   
@<TRIPOS>SUBSTRUCTURE
     1 51Y         1 TEMP              0 ****  ****    0 ROOT
