@<TRIPOS>MOLECULE
51Y
   35    36     1     0     0
SMALL
bcc


@<TRIPOS>ATOM
      1 C7           0.4490    -1.3730     0.4310 ca         1 51Y      -0.228000
      2 C6           0.0680    -0.0860     0.0140 ca         1 51Y       0.233600
      3 C1           1.7740    -1.7350     0.4660 ca         1 51Y      -0.031000
      4 C4           1.0660     0.8530    -0.3770 ca         1 51Y      -0.165300
      5 C3           2.3840     0.4470    -0.3360 ca         1 51Y       0.114400
      6 C2           2.7680    -0.8370     0.0810 ca         1 51Y      -0.085000
      7 N8          -1.2290     0.3000     0.0030 nu         1 51Y      -0.766600
      8 C9          -2.3420    -0.5680     0.3250 c5         1 51Y       0.236500
      9 C10         -3.6100     0.2720     0.5670 c5         1 51Y       0.142800
     10 O11         -4.5030    -0.6390     1.1840 oh         1 51Y      -0.592800
     11 C12         -3.4200     1.5020     1.4400 c3         1 51Y      -0.107100
     12 C13         -4.0720     0.5730    -0.8610 c5         1 51Y      -0.115400
     13 C14         -3.8280    -0.7320    -1.6310 c5         1 51Y      -0.072400
     14 C15         -2.7400    -1.4940    -0.8390 c5         1 51Y      -0.100400
     15 CL1          3.6490     1.5320    -0.8020 cl         1 51Y      -0.093400
     16 C17          4.1300    -1.2270     0.1130 cg         1 51Y       0.250800
     17 N18          5.2310    -1.5730     0.1500 n1         1 51Y      -0.370800
     18 H1          -0.2950    -2.1020     0.7190 ha         1 51Y       0.143000
     19 H2           2.0510    -2.7300     0.7870 ha         1 51Y       0.143000
     20 H3           0.0580     2.2000    -1.7220 hc         1 51Y       0.046367
     21 H4           0.0110     2.6890    -0.0290 hc         1 51Y       0.046367
     22 H5           1.4780     2.8910    -0.9680 hc         1 51Y       0.046367
     23 H6          -1.4480     1.1310    -0.5220 hn         1 51Y       0.431800
     24 H7          -2.0880    -1.1190     1.2340 h1         1 51Y       0.085700
     25 H8          -5.3840    -0.2490     1.1760 ho         1 51Y       0.408000
     26 H9          -4.3800     1.9970     1.6020 hc         1 51Y       0.045700
     27 H10         -3.0100     1.2330     2.4140 hc         1 51Y       0.045700
     28 H11         -2.7550     2.2380     0.9880 hc         1 51Y       0.045700
     29 H12         -5.1120     0.9080    -0.8920 hc         1 51Y       0.047200
     30 H13         -3.4800     1.3910    -1.2820 hc         1 51Y       0.047200
     31 H14         -4.7420    -1.3230    -1.6860 hc         1 51Y       0.047700
     32 H15         -3.5200    -0.5340    -2.6580 hc         1 51Y       0.047700
     33 H16         -1.8730    -1.7410    -1.4540 hc         1 51Y       0.058700
     34 H17         -3.1270    -2.4360    -0.4530 hc         1 51Y       0.058700
     35 C5           0.6370     2.2260    -0.7950 c3         1 51Y      -0.044800
@<TRIPOS>BOND
     1     1     2 ar  
     2     1     3 ar  
     3     1    18 1   
     4     2     4 ar  
     5     2     7 1   
     6     3     6 ar  
     7     3    19 1   
     8     4     5 ar  
     9     4    35 1   
    10     5     6 ar  
    11     5    15 1   
    12     6    16 1   
    13     7     8 1   
    14     7    23 1   
    15     8     9 1   
    16     8    14 1   
    17     8    24 1   
    18     9    10 1   
    19     9    11 1   
    20     9    12 1   
    21    10    25 1   
    22    11    26 1   
    23    11    27 1   
    24    11    28 1   
    25    12    13 1   
    26    12    29 1   
    27    12    30 1   
    28    13    14 1   
    29    13    31 1   
    30    13    32 1   
    31    14    33 1   
    32    14    34 1   
    33    16    17 3   
    34    20    35 1   
    35    21    35 1   
    36    22    35 1   
@<TRIPOS>SUBSTRUCTURE
     1 51Y         1 TEMP              0 ****  ****    0 ROOT
