@<TRIPOS>MOLECULE
520
   41    43     1     0     0
SMALL
No Charge or Current Charge


@<TRIPOS>ATOM
      1 C3           6.1510     0.5630    -0.6300 ca         1 520      -0.009500
      2 C2           7.1040    -0.4690    -0.6190 ca         1 520      -0.213500
      3 C1           6.8240    -1.6800     0.0220 ca         1 520       0.352000
      4 N1           7.7540    -2.6780     0.0320 nv         1 520      -1.098000
      5 C6           5.5930    -1.8650     0.6600 ca         1 520      -0.213500
      6 C5           4.6320    -0.8400     0.6550 ca         1 520      -0.009500
      7 C4           4.8990     0.3810    -0.0040 ca         1 520      -0.236600
      8 C7           3.8890     1.5030    -0.0090 c          1 520       0.601300
      9 O1           4.2640     2.6700    -0.0070 o          1 520      -0.530100
     10 C16          2.4130     1.1710    -0.0140 ca         1 520      -0.150600
     11 C17          1.4930     2.0430     0.6040 ca         1 520      -0.072500
     12 C18          0.1170     1.7550     0.5950 ca         1 520      -0.105000
     13 C15          1.9230     0.0180    -0.6650 ca         1 520      -0.072500
     14 C14          0.5470    -0.2670    -0.6710 ca         1 520      -0.105000
     15 C19         -0.3860     0.5920    -0.0390 cp         1 520      -0.037000
     16 C10         -1.8530     0.2850    -0.0480 cp         1 520       0.022000
     17 C9          -2.3220    -1.0510     0.0210 ca         1 520      -0.121500
     18 C8          -3.6960    -1.3440     0.0140 ca         1 520      -0.016500
     19 C13         -4.6400    -0.3000    -0.0650 ca         1 520      -0.318500
     20 O3          -7.1510     0.4820    -0.5480 o          1 520      -0.529500
     21 O2          -6.6300    -2.0360    -0.5560 o          1 520      -0.529500
     22 C12         -4.1950     1.0360    -0.1340 ca         1 520      -0.016500
     23 C11         -2.8180     1.3190    -0.1250 ca         1 520      -0.121500
     24 S2          -6.3950    -0.6750    -0.0730 sy         1 520       1.144600
     25 N2          -6.7170    -0.7240     1.5280 n8         1 520      -1.000100
     26 H1           6.3830     1.5000    -1.1330 ha         1 520       0.122500
     27 H2           8.0610    -0.3200    -1.1120 ha         1 520       0.115000
     28 H3           7.6220    -3.4750     0.6520 hn         1 520       0.472000
     29 H4           8.7070    -2.4770    -0.2650 hn         1 520       0.472000
     30 H5           5.3760    -2.8010     1.1670 ha         1 520       0.115000
     31 H6           3.6890    -0.9950     1.1750 ha         1 520       0.122500
     32 H7           1.8440     2.9440     1.1030 ha         1 520       0.128000
     33 H8          -0.5630     2.4370     1.0980 ha         1 520       0.119000
     34 H9           2.6030    -0.6550    -1.1830 ha         1 520       0.128000
     35 H10          0.1990    -1.1570    -1.1900 ha         1 520       0.119000
     36 H11         -1.6130    -1.8710     0.0960 ha         1 520       0.123000
     37 H12         -4.0210    -2.3820     0.0730 ha         1 520       0.136500
     38 H13         -4.9060     1.8580    -0.2010 ha         1 520       0.136500
     39 H14         -2.4980     2.3550    -0.1940 ha         1 520       0.123000
     40 H15         -7.4720    -0.0440     1.5910 hn         1 520       0.476500
     41 H16         -5.9150    -0.2340     1.9170 hn         1 520       0.476500
@<TRIPOS>BOND
     1     1     2 ar  
     2     1     7 ar  
     3     1    26 1   
     4     2     3 ar  
     5     2    27 1   
     6     3     4 1   
     7     3     5 ar  
     8     4    28 1   
     9     4    29 1   
    10     5     6 ar  
    11     5    30 1   
    12     6     7 ar  
    13     6    31 1   
    14     7     8 1   
    15     8     9 2   
    16     8    10 1   
    17    10    11 ar  
    18    10    13 ar  
    19    11    12 ar  
    20    11    32 1   
    21    12    15 ar  
    22    12    33 1   
    23    13    14 ar  
    24    13    34 1   
    25    14    15 ar  
    26    14    35 1   
    27    15    16 1   
    28    16    17 ar  
    29    16    23 ar  
    30    17    18 ar  
    31    17    36 1   
    32    18    19 ar  
    33    18    37 1   
    34    19    22 ar  
    35    19    24 1   
    36    20    24 2   
    37    21    24 2   
    38    22    23 ar  
    39    22    38 1   
    40    23    39 1   
    41    24    25 1   
    42    25    40 1   
    43    25    41 1   
@<TRIPOS>SUBSTRUCTURE
     1 520         1 TEMP              0 ****  ****    0 ROOT
