@<TRIPOS>MOLECULE
520
   41    43     1     0     0
SMALL
bcc


@<TRIPOS>ATOM
      1 C3           6.1250     0.6050    -0.5250 ca         1 520      -0.027500
      2 C2           7.1100    -0.3500    -0.4320 ca         1 520      -0.231500
      3 C1           6.8330    -1.6140     0.1240 ca         1 520       0.213600
      4 N1           7.7920    -2.5710     0.1860 nv         1 520      -0.849200
      5 C6           5.5280    -1.8640     0.5800 ca         1 520      -0.231500
      6 C5           4.5470    -0.9030     0.4630 ca         1 520      -0.027500
      7 C4           4.8150     0.3520    -0.0960 ca         1 520      -0.236600
      8 C7           3.8110     1.4210    -0.1760 c          1 520       0.601300
      9 O1           4.1330     2.5930    -0.2820 o          1 520      -0.530100
     10 C16          2.3610     1.0720    -0.1260 ca         1 520      -0.150600
     11 C17          1.4850     1.9190     0.5510 ca         1 520      -0.090500
     12 C18          0.1280     1.6540     0.5740 ca         1 520      -0.123000
     13 C15          1.8410    -0.0280    -0.8060 ca         1 520      -0.090500
     14 C14          0.4790    -0.2800    -0.8000 ca         1 520      -0.123000
     15 C19         -0.3970     0.5510    -0.1030 cp         1 520      -0.037000
     16 C10         -1.8460     0.2760    -0.0830 cp         1 520       0.022000
     17 C9          -2.3210    -1.0350    -0.0280 ca         1 520      -0.139500
     18 C8          -3.6800    -1.3000    -0.0110 ca         1 520      -0.034500
     19 C13         -4.5770    -0.2420    -0.0510 ca         1 520      -0.318500
     20 O3          -6.9930     0.5330    -0.6790 o          1 520      -0.600300
     21 O2          -6.5350    -1.9330    -0.4380 o          1 520      -0.600300
     22 C12         -4.1300     1.0710    -0.1110 ca         1 520      -0.034500
     23 C11         -2.7690     1.3230    -0.1230 ca         1 520      -0.139500
     24 S2          -6.3210    -0.5640    -0.0030 sy         1 520       1.286200
     25 N2          -6.7950    -0.4950     1.5680 n8         1 520      -0.889700
     26 H1           6.3720     1.5690    -0.9510 ha         1 520       0.140500
     27 H2           8.1100    -0.1310    -0.7860 ha         1 520       0.133000
     28 H3           7.6430    -3.3650     0.7870 hn         1 520       0.416800
     29 H4           8.7540    -2.2980     0.0850 hn         1 520       0.416800
     30 H5           5.2920    -2.8200     1.0310 ha         1 520       0.133000
     31 H6           3.5610    -1.1320     0.8460 ha         1 520       0.140500
     32 H7           1.8680     2.7800     1.0830 ha         1 520       0.146000
     33 H8          -0.5280     2.3040     1.1390 ha         1 520       0.137000
     34 H9           2.4940    -0.6780    -1.3730 ha         1 520       0.146000
     35 H10          0.0980    -1.1220    -1.3640 ha         1 520       0.137000
     36 H11         -1.6270    -1.8630     0.0210 ha         1 520       0.141000
     37 H12         -4.0250    -2.3240     0.0350 ha         1 520       0.154500
     38 H13         -4.8260     1.8980    -0.1580 ha         1 520       0.154500
     39 H14         -2.4270     2.3470    -0.1900 ha         1 520       0.141000
     40 H15         -6.7020     0.4250     1.9840 hn         1 520       0.421300
     41 H16         -6.3830    -1.2100     2.1580 hn         1 520       0.421300
@<TRIPOS>BOND
     1     1     2 ar  
     2     1     7 ar  
     3     1    26 1   
     4     2     3 ar  
     5     2    27 1   
     6     3     4 1   
     7     3     5 ar  
     8     4    28 1   
     9     4    29 1   
    10     5     6 ar  
    11     5    30 1   
    12     6     7 ar  
    13     6    31 1   
    14     7     8 1   
    15     8     9 2   
    16     8    10 1   
    17    10    11 ar  
    18    10    13 ar  
    19    11    12 ar  
    20    11    32 1   
    21    12    15 ar  
    22    12    33 1   
    23    13    14 ar  
    24    13    34 1   
    25    14    15 ar  
    26    14    35 1   
    27    15    16 1   
    28    16    17 ar  
    29    16    23 ar  
    30    17    18 ar  
    31    17    36 1   
    32    18    19 ar  
    33    18    37 1   
    34    19    22 ar  
    35    19    24 1   
    36    20    24 2   
    37    21    24 2   
    38    22    23 ar  
    39    22    38 1   
    40    23    39 1   
    41    24    25 1   
    42    25    40 1   
    43    25    41 1   
@<TRIPOS>SUBSTRUCTURE
     1 520         1 TEMP              0 ****  ****    0 ROOT
