@<TRIPOS>MOLECULE
521
   29    31     1     0     0
SMALL
No Charge or Current Charge


@<TRIPOS>ATOM
      1 C1           2.7100    -1.0950     0.0060 ca         1 521      -0.097000
      2 C2           2.0720    -2.2270     0.5410 ca         1 521      -0.111000
      3 C3           1.5920    -2.2060     1.8620 ca         1 521      -0.087000
      4 C4           1.7530    -1.0550     2.6600 ca         1 521      -0.026000
      5 C5           2.3820     0.0800     2.1140 ca         1 521      -0.087000
      6 C6           2.8630     0.0590     0.7920 ca         1 521      -0.111000
      7 C7           1.2410    -1.0140     4.0290 cc         1 521      -0.146000
      8 N1           1.2110    -2.3640     7.4780 nh         1 521      -0.789300
      9 N2           1.1140    -3.2660     9.7520 ns         1 521      -0.602300
     10 C9           1.0240    -1.6360     6.2810 cd         1 521       0.222000
     11 C8           1.6450    -1.9020     4.9990 cd         1 521       0.091000
     12 C10          0.1910    -0.5400     6.2370 cc         1 521      -0.227000
     13 S1           0.1440     0.2010     4.6460 ss         1 521       0.288000
     14 C11          1.9120    -3.7000     7.5700 c5         1 521       0.146800
     15 C12          1.7090    -4.2360     9.0290 c          1 521       0.579000
     16 O1           2.0020    -5.3290     9.4890 o          1 521      -0.484000
     17 S2           0.6070    -1.8950     9.0140 s6         1 521       1.329900
     18 O2           1.3900    -0.7590     9.5040 o          1 521      -0.527000
     19 O3          -0.8560    -1.8800     8.9770 o          1 521      -0.527000
     20 Cl1          2.8200    -3.1620     4.7040 cl         1 521      -0.145000
     21 H1           3.0810    -1.1120    -1.0170 ha         1 521       0.116000
     22 H2           1.9470    -3.1200    -0.0680 ha         1 521       0.117000
     23 H3           1.0900    -3.0820     2.2660 ha         1 521       0.121500
     24 H5           2.5060     0.9770     2.7150 ha         1 521       0.121500
     25 H6           3.3530     0.9370     0.3780 ha         1 521       0.117000
     26 HN2          0.7570    -3.4200    10.6770 hn         1 521       0.358500
     27 H10         -0.4080    -0.0950     7.0160 h4         1 521       0.174000
     28 H111         2.9930    -3.6110     7.4060 h1         1 521       0.092200
     29 H112         1.4950    -4.4400     6.8760 h1         1 521       0.092200
@<TRIPOS>BOND
     1     1     2 ar  
     2     1     6 ar  
     3     1    21 1   
     4     2     3 ar  
     5     2    22 1   
     6     3     4 ar  
     7     3    23 1   
     8     4     5 ar  
     9     4     7 1   
    10     5     6 ar  
    11     5    24 1   
    12     6    25 1   
    13     7    11 2   
    14     7    13 1   
    15     8    10 1   
    16     8    14 1   
    17     8    17 1   
    18     9    15 1   
    19     9    17 1   
    20     9    26 1   
    21    10    11 1   
    22    10    12 2   
    23    11    20 1   
    24    12    13 1   
    25    12    27 1   
    26    14    15 1   
    27    14    28 1   
    28    14    29 1   
    29    15    16 2   
    30    17    18 2   
    31    17    19 2   
@<TRIPOS>SUBSTRUCTURE
     1 521         1 TEMP              0 ****  ****    0 ROOT
