@<TRIPOS>MOLECULE
521
   29    31     1     0     0
SMALL
bcc


@<TRIPOS>ATOM
      1 C1           2.1530    -1.2780    -0.0250 ca         1 521      -0.115000
      2 C2           1.2640    -2.1140     0.6390 ca         1 521      -0.129000
      3 C3           1.1000    -2.0110     2.0120 ca         1 521      -0.105000
      4 C4           1.8320    -1.0720     2.7400 ca         1 521      -0.026000
      5 C5           2.7210    -0.2330     2.0660 ca         1 521      -0.105000
      6 C6           2.8780    -0.3350     0.6920 ca         1 521      -0.129000
      7 C7           1.6610    -0.9530     4.1890 cc         1 521      -0.001100
      8 N1           1.3830    -2.1860     7.6290 nh         1 521      -0.650900
      9 N2           0.5870    -3.8080     9.1740 ns         1 521      -0.669300
     10 C9           1.4490    -1.3970     6.4730 cd         1 521       0.083600
     11 C8           1.6260    -1.9150     5.1540 cd         1 521      -0.000600
     12 C10          1.3460    -0.0400     6.4840 cc         1 521      -0.100100
     13 S1           1.4560     0.6040     4.9120 ss         1 521      -0.001800
     14 C11          2.5180    -2.8840     8.2030 c5         1 521       0.146800
     15 C12          1.9520    -3.8560     9.2100 c          1 521       0.721500
     16 O1           2.6000    -4.5670     9.9330 o          1 521      -0.559500
     17 S2          -0.1000    -2.7240     8.1110 s6         1 521       1.471500
     18 O2          -0.8300    -1.7020     8.8270 o          1 521      -0.597800
     19 O3          -0.8010    -3.4010     7.0440 o          1 521      -0.597800
     20 CL1          1.8280    -3.5920     4.8700 cl         1 521      -0.053400
     21 H1           2.2790    -1.3600    -1.0960 ha         1 521       0.134000
     22 H2           0.6900    -2.8450     0.0850 ha         1 521       0.135000
     23 H3           0.3840    -2.6500     2.5120 ha         1 521       0.139500
     24 H5           3.3040     0.4930     2.6190 ha         1 521       0.139500
     25 H6           3.5730     0.3190     0.1820 ha         1 521       0.135000
     26 HN2         -0.0010    -4.3560     9.7930 hn         1 521       0.358500
     27 H10          1.2120     0.5990     7.3430 h4         1 521       0.192000
     28 H111         3.1920    -2.1890     8.7070 h1         1 521       0.092200
     29 H112         3.0850    -3.4380     7.4520 h1         1 521       0.092200
@<TRIPOS>BOND
     1     1     2 ar  
     2     1     6 ar  
     3     1    21 1   
     4     2     3 ar  
     5     2    22 1   
     6     3     4 ar  
     7     3    23 1   
     8     4     5 ar  
     9     4     7 1   
    10     5     6 ar  
    11     5    24 1   
    12     6    25 1   
    13     7    11 2   
    14     7    13 1   
    15     8    10 1   
    16     8    14 1   
    17     8    17 1   
    18     9    15 1   
    19     9    17 1   
    20     9    26 1   
    21    10    11 1   
    22    10    12 2   
    23    11    20 1   
    24    12    13 1   
    25    12    27 1   
    26    14    15 1   
    27    14    28 1   
    28    14    29 1   
    29    15    16 2   
    30    17    18 2   
    31    17    19 2   
@<TRIPOS>SUBSTRUCTURE
     1 521         1 TEMP              0 ****  ****    0 ROOT
