@<TRIPOS>MOLECULE
524
   62    65     1     0     0
SMALL
abcg2


@<TRIPOS>ATOM
      1 C2           7.1330    -0.1740     1.1750 cc         1 524      -0.097000
      2 C4           5.1180     1.0790     1.6210 cd         1 524      -0.167000
      3 C5           4.3880     0.3550     0.7200 cc         1 524      -0.028300
      4 C1           6.3910    -0.9220     0.2450 cc         1 524      -0.060000
      5 C3           6.4860     0.8180     1.8530 cd         1 524      -0.076000
      6 N6           5.0610    -0.6310     0.0560 na         1 524       0.292400
      7 N7           4.5490    -1.4610    -0.8650 nc         1 524      -0.604100
      8 C8           5.5850    -2.2080    -1.1860 cd         1 524       0.529200
      9 N9           6.7290    -1.9300    -0.5490 nd         1 524      -0.403300
     10 C14         -1.2360     0.4750    -1.0200 c3         1 524      -0.112700
     11 C15         -2.1080    -0.7780    -0.8320 c3         1 524       0.108500
     12 C16         -3.5760    -0.3980    -1.0250 c          1 524       0.565100
     13 N17         -4.4800    -0.8920    -0.1670 n          1 524      -0.405800
     14 C18         -1.8040     1.5750    -0.1350 c          1 524       0.607100
     15 N19         -1.7080    -1.8080    -1.7760 n8         1 524      -0.999200
     16 O20         -3.9110     0.3020    -1.9770 o          1 524      -0.618100
     17 O21         -2.1480     1.2860     1.0090 o          1 524      -0.630100
     18 N22         -1.9430     2.8330    -0.6020 n          1 524      -0.396800
     19 C23         -2.4840     3.8480     0.2820 c3         1 524       0.088800
     20 C27         -1.5360     3.3300    -1.8980 c3         1 524       0.088800
     21 C31         -4.2020    -1.7220     0.9940 c5         1 524       0.071000
     22 C32         -5.5960    -2.1680     1.4190 c5         1 524       0.181300
     23 C33         -6.4790    -0.9940     1.0500 c5         1 524      -0.127400
     24 C34         -5.8990    -0.5600    -0.2880 c5         1 524       0.100000
     25 F41         -5.6340    -2.4650     2.7730 f          1 524      -0.254000
     26 C43          2.9320     0.6000     0.4660 c6         1 524      -0.011400
     27 C44          2.6250     1.0430    -0.9700 c6         1 524      -0.069900
     28 C45          1.1440     1.3710    -1.1280 c6         1 524      -0.071400
     29 C46          0.2540     0.1940    -0.7280 c6         1 524      -0.050700
     30 C47          0.5690    -0.2220     0.7090 c6         1 524      -0.071400
     31 C48          2.0430    -0.5820     0.8700 c6         1 524      -0.069900
     32 H191        -2.1690    -2.6840    -1.5620 hn         1 524       0.408000
     33 H192        -1.9950    -1.5530    -2.7150 hn         1 524       0.408000
     34 H15         -1.9400    -1.1700     0.1690 h1         1 524       0.086700
     35 H341        -6.0370     0.5040    -0.4770 h1         1 524       0.060700
     36 H342        -6.3500    -1.1070    -1.1200 h1         1 524       0.060700
     37 H331        -7.5360    -1.2490     0.9870 hc         1 524       0.071200
     38 H332        -6.3560    -0.2010     1.7920 hc         1 524       0.071200
     39 H32         -5.8950    -3.0680     0.8770 h1         1 524       0.060700
     40 H311        -3.5610    -2.5690     0.7490 h1         1 524       0.067700
     41 H312        -3.7290    -1.1460     1.7950 h1         1 524       0.067700
     42 H14         -1.3060     0.7410    -2.0760 hc         1 524       0.074700
     43 H231        -1.6950     4.3590     0.8390 h1         1 524       0.041200
     44 H232        -3.0120     4.5920    -0.3130 h1         1 524       0.041200
     45 H233        -3.1820     3.4140     0.9910 h1         1 524       0.041200
     46 H271        -1.1750     2.5430    -2.5480 h1         1 524       0.041200
     47 H272        -2.3810     3.8110    -2.3930 h1         1 524       0.041200
     48 H273        -0.7400     4.0700    -1.7930 h1         1 524       0.041200
     49 H46          0.5130    -0.6510    -1.3760 hc         1 524       0.078700
     50 H451         0.8960     2.2510    -0.5230 hc         1 524       0.044200
     51 H452         0.9550     1.6470    -2.1690 hc         1 524       0.044200
     52 H441         3.2280     1.9180    -1.2260 hc         1 524       0.055200
     53 H442         2.8980     0.2510    -1.6690 hc         1 524       0.055200
     54 H43          2.6710     1.4370     1.1230 hc         1 524       0.055700
     55 H8           5.4950    -2.9920    -1.9230 h5         1 524       0.069800
     56 H2           8.1770    -0.4010     1.3290 ha         1 524       0.147000
     57 H3           7.0210     1.4150     2.5780 ha         1 524       0.126000
     58 H4           4.6220     1.8690     2.1670 ha         1 524       0.133000
     59 H481         2.2870    -1.4550     0.2600 hc         1 524       0.055200
     60 H482         2.2420    -0.8530     1.9100 hc         1 524       0.055200
     61 H471         0.3240     0.5890     1.4000 hc         1 524       0.044200
     62 H472        -0.0340    -1.0810     1.0120 hc         1 524       0.044200
@<TRIPOS>BOND
     1     1     4 1   
     2     1     5 2   
     3     1    56 1   
     4     2     3 2   
     5     2     5 1   
     6     2    58 1   
     7     3     6 1   
     8     3    26 1   
     9     4     6 1   
    10     4     9 2   
    11     5    57 1   
    12     6     7 1   
    13     7     8 2   
    14     8     9 1   
    15     8    55 1   
    16    10    11 1   
    17    10    14 1   
    18    10    29 1   
    19    10    42 1   
    20    11    12 1   
    21    11    15 1   
    22    11    34 1   
    23    12    13 1   
    24    12    16 2   
    25    13    21 1   
    26    13    24 1   
    27    14    17 2   
    28    14    18 1   
    29    15    32 1   
    30    15    33 1   
    31    18    19 1   
    32    18    20 1   
    33    19    43 1   
    34    19    44 1   
    35    19    45 1   
    36    20    46 1   
    37    20    47 1   
    38    20    48 1   
    39    21    22 1   
    40    21    40 1   
    41    21    41 1   
    42    22    23 1   
    43    22    25 1   
    44    22    39 1   
    45    23    24 1   
    46    23    37 1   
    47    23    38 1   
    48    24    35 1   
    49    24    36 1   
    50    26    27 1   
    51    26    31 1   
    52    26    54 1   
    53    27    28 1   
    54    27    52 1   
    55    27    53 1   
    56    28    29 1   
    57    28    50 1   
    58    28    51 1   
    59    29    30 1   
    60    29    49 1   
    61    30    31 1   
    62    30    61 1   
    63    30    62 1   
    64    31    59 1   
    65    31    60 1   
@<TRIPOS>SUBSTRUCTURE
     1 524         1 TEMP              0 ****  ****    0 ROOT
