@<TRIPOS>MOLECULE
524
   62    65     1     0     0
SMALL
No Charge or Current Charge


@<TRIPOS>ATOM
      1 C2           7.3200    -0.1650     1.1520 cc         1 524      -0.097000
      2 C4           5.2710     1.0480     1.5950 cd         1 524      -0.167000
      3 C5           4.5110     0.2970     0.6890 cc         1 524      -0.028300
      4 C1           6.5680    -0.9370     0.2310 cc         1 524      -0.060000
      5 C3           6.6770     0.8310     1.8390 cd         1 524      -0.076000
      6 N6           5.2370    -0.7140     0.0140 na         1 524       0.292400
      7 N7           4.7060    -1.5560    -0.9010 nc         1 524      -0.604100
      8 C8           5.7750    -2.2860    -1.2180 cd         1 524       0.529200
      9 N9           6.9410    -1.9330    -0.5410 nd         1 524      -0.403300
     10 C14         -1.2480     0.5500    -0.9220 c3         1 524      -0.112700
     11 C15         -2.2180    -0.6520    -0.6730 c3         1 524       0.108500
     12 C16         -3.7330    -0.2420    -0.8680 c          1 524       0.565100
     13 N17         -4.7170    -0.9020    -0.0990 n          1 524      -0.405800
     14 C18         -1.7250     1.7750    -0.0840 c          1 524       0.607100
     15 N19         -1.8020    -1.8340    -1.5120 n8         1 524      -0.999200
     16 O20         -4.0690     0.6090    -1.6850 o          1 524      -0.618100
     17 O21         -1.9920     1.6370     1.1050 o          1 524      -0.630100
     18 N22         -1.7830     3.0700    -0.6650 n          1 524      -0.396800
     19 C23         -2.1090     4.2400     0.1830 c3         1 524       0.088800
     20 C27         -1.7800     3.2890    -2.1300 c3         1 524       0.088800
     21 C31         -4.4340    -1.9490     0.9130 c5         1 524       0.071000
     22 C32         -5.8530    -2.5090     1.2000 c5         1 524       0.181300
     23 C33         -6.7240    -1.2380     1.0750 c5         1 524      -0.127400
     24 C34         -6.1580    -0.5920    -0.2160 c5         1 524       0.100000
     25 F41         -5.9390    -3.0520     2.4830 f          1 524      -0.254000
     26 C43          3.0280     0.6020     0.4990 c6         1 524      -0.011400
     27 C44          2.7030     1.0670    -0.9470 c6         1 524      -0.069900
     28 C45          1.2020     1.4210    -1.0950 c6         1 524      -0.071400
     29 C46          0.2840     0.2300    -0.6870 c6         1 524      -0.050700
     30 C47          0.6240    -0.2310     0.7660 c6         1 524      -0.071400
     31 C48          2.1240    -0.5910     0.9140 c6         1 524      -0.069900
     32 H191        -2.4310    -2.6270    -1.3340 hn         1 524       0.408000
     33 H192        -1.9650    -1.6210    -2.5040 hn         1 524       0.408000
     34 H15         -2.1130    -0.9360     0.3820 h1         1 524       0.086700
     35 H341        -6.3540     0.4880    -0.2540 h1         1 524       0.060700
     36 H342        -6.5790    -1.0540    -1.1200 h1         1 524       0.060700
     37 H331        -7.7940    -1.4620     0.9990 hc         1 524       0.071200
     38 H332        -6.5860    -0.5760     1.9380 hc         1 524       0.071200
     39 H32         -6.1430    -3.2750     0.4680 h1         1 524       0.060700
     40 H311        -3.7670    -2.7340     0.5330 h1         1 524       0.067700
     41 H312        -3.9850    -1.5100     1.8150 h1         1 524       0.067700
     42 H14         -1.3240     0.8030    -1.9830 hc         1 524       0.074700
     43 H231        -1.5120     4.2130     1.1030 h1         1 524       0.041200
     44 H232        -1.8850     5.1750    -0.3460 h1         1 524       0.041200
     45 H233        -3.1750     4.2210     0.4430 h1         1 524       0.041200
     46 H271        -0.7900     3.0640    -2.5420 h1         1 524       0.041200
     47 H272        -2.5290     2.6450    -2.6080 h1         1 524       0.041200
     48 H273        -2.0250     4.3320    -2.3660 h1         1 524       0.041200
     49 H46          0.5280    -0.6030    -1.3620 hc         1 524       0.078700
     50 H451         0.9780     2.3050    -0.4830 hc         1 524       0.044200
     51 H452         1.0080     1.7030    -2.1380 hc         1 524       0.044200
     52 H441         3.3160     1.9430    -1.2020 hc         1 524       0.055200
     53 H442         2.9600     0.2870    -1.6740 hc         1 524       0.055200
     54 H43          2.7610     1.4380     1.1610 hc         1 524       0.055700
     55 H8           5.7640    -3.0940    -1.9410 h5         1 524       0.069800
     56 H2           8.3770    -0.3700     1.2980 ha         1 524       0.147000
     57 H3           7.2170     1.4450     2.5540 ha         1 524       0.126000
     58 H4           4.7850     1.8430     2.1510 ha         1 524       0.133000
     59 H481         2.3410    -1.4760     0.3030 hc         1 524       0.055200
     60 H482         2.3350    -0.8720     1.9550 hc         1 524       0.055200
     61 H471         0.3750     0.5580     1.4870 hc         1 524       0.044200
     62 H472         0.0240    -1.1080     1.0420 hc         1 524       0.044200
@<TRIPOS>BOND
     1     1     4 1   
     2     1     5 2   
     3     1    56 1   
     4     2     3 2   
     5     2     5 1   
     6     2    58 1   
     7     3     6 1   
     8     3    26 1   
     9     4     6 1   
    10     4     9 2   
    11     5    57 1   
    12     6     7 1   
    13     7     8 2   
    14     8     9 1   
    15     8    55 1   
    16    10    11 1   
    17    10    14 1   
    18    10    29 1   
    19    10    42 1   
    20    11    12 1   
    21    11    15 1   
    22    11    34 1   
    23    12    13 1   
    24    12    16 2   
    25    13    21 1   
    26    13    24 1   
    27    14    17 2   
    28    14    18 1   
    29    15    32 1   
    30    15    33 1   
    31    18    19 1   
    32    18    20 1   
    33    19    43 1   
    34    19    44 1   
    35    19    45 1   
    36    20    46 1   
    37    20    47 1   
    38    20    48 1   
    39    21    22 1   
    40    21    40 1   
    41    21    41 1   
    42    22    23 1   
    43    22    25 1   
    44    22    39 1   
    45    23    24 1   
    46    23    37 1   
    47    23    38 1   
    48    24    35 1   
    49    24    36 1   
    50    26    27 1   
    51    26    31 1   
    52    26    54 1   
    53    27    28 1   
    54    27    52 1   
    55    27    53 1   
    56    28    29 1   
    57    28    50 1   
    58    28    51 1   
    59    29    30 1   
    60    29    49 1   
    61    30    31 1   
    62    30    61 1   
    63    30    62 1   
    64    31    59 1   
    65    31    60 1   
@<TRIPOS>SUBSTRUCTURE
     1 524         1 TEMP              0 ****  ****    0 ROOT
