@<TRIPOS>MOLECULE
525
   75    78     1     0     0
SMALL
No Charge or Current Charge


@<TRIPOS>ATOM
      1 C1           6.6130    -1.6820    -2.3130 ca         1 525      -0.171000
      2 C2           7.3340    -1.3350    -1.1680 ca         1 525       0.226000
      3 C3           6.7020    -0.6810    -0.1050 ca         1 525      -0.181000
      4 C4           5.3300    -0.3510    -0.1610 ca         1 525       0.046700
      5 C5           4.5940    -0.7120    -1.3290 ca         1 525      -0.291500
      6 C6           5.2490    -1.3720    -2.3930 ca         1 525       0.011000
      7 C7           4.7420     0.3540     1.0720 c3         1 525      -0.046100
      8 C8           3.7810     1.5470     0.7670 c3         1 525      -0.080700
      9 C9           2.3170     1.0240     0.6530 c3         1 525       0.227800
     10 N10          2.1780    -0.2920    -0.0100 n3         1 525      -0.797500
     11 S11          2.8370    -0.3770    -1.5760 sy         1 525       1.199600
     12 C12          0.8430    -0.9270     0.1860 c3         1 525       0.203800
     13 C13         -0.3570    -0.3200    -0.6170 c3         1 525       0.143300
     14 C14         -1.7270    -0.5070     0.1040 c3         1 525       0.095700
     15 O15         -0.4280    -0.8840    -1.9470 oh         1 525      -0.658000
     16 C16         -2.1190    -1.9890     0.3660 c3         1 525      -0.057100
     17 N17         -2.7930     0.1800    -0.6360 ns         1 525      -0.484900
     18 C18         -3.7490     0.9800    -0.0800 c          1 525       0.642100
     19 O19         -4.6430     1.3270    -1.0540 os         1 525      -0.450100
     20 O20         -3.7850     1.3190     1.0930 o          1 525      -0.546000
     21 C21         -3.4830    -2.1370     1.0350 ca         1 525      -0.090300
     22 C22         -4.6070    -2.5340     0.2840 ca         1 525      -0.100500
     23 C23         -5.8660    -2.6500     0.8980 ca         1 525      -0.107000
     24 C24         -6.0100    -2.3680     2.2670 ca         1 525      -0.107000
     25 C25         -4.8930    -1.9720     3.0210 ca         1 525      -0.107000
     26 C26         -3.6330    -1.8580     2.4080 ca         1 525      -0.100500
     27 O27          2.6540     0.9420    -2.1880 o          1 525      -0.545000
     28 O28          2.2380    -1.5560    -2.2120 o          1 525      -0.545000
     29 C29          3.9350     2.7910     1.7360 c3         1 525      -0.033000
     30 C30          3.7110     2.4030     3.2260 c3         1 525      -0.089100
     31 C31          5.3520     3.4240     1.5920 c3         1 525      -0.089100
     32 C32          2.9080     3.8980     1.3560 c3         1 525      -0.089100
     33 F33          8.6490    -1.6360    -1.0860 f          1 525      -0.170000
     34 C34         -5.7900     2.0820    -0.5790 c5         1 525       0.160300
     35 C35         -6.7500     1.1390     0.2310 c5         1 525       0.125600
     36 C36         -6.6350     2.4630    -1.8270 c5         1 525      -0.120400
     37 O37         -7.9740     1.0760    -0.5360 os         1 525      -0.452000
     38 C38         -8.0660     2.3060    -1.2720 c5         1 525       0.150600
     39 H1           7.1100    -2.1900    -3.1350 ha         1 525       0.140000
     40 H2           7.2920    -0.4310     0.7720 ha         1 525       0.132000
     41 H3           4.7000    -1.6490    -3.2920 ha         1 525       0.138000
     42 H4           4.2280    -0.3820     1.7030 hc         1 525       0.062200
     43 H5           5.5680     0.6980     1.7000 hc         1 525       0.062200
     44 H6           4.0650     1.9270    -0.2220 hc         1 525       0.075700
     45 H7           1.9080     0.9420     1.6670 h1         1 525       0.064200
     46 H8           1.7100     1.7750     0.1310 h1         1 525       0.064200
     47 H9           0.9020    -2.0010    -0.0370 h1         1 525       0.064200
     48 H10          0.5920    -0.8700     1.2540 h1         1 525       0.064200
     49 H11         -0.1890     0.7640    -0.6860 h1         1 525       0.084700
     50 H12         -1.6370    -0.0190     1.0850 h1         1 525       0.085700
     51 H13          0.4780    -1.2160    -2.1680 ho         1 525       0.463000
     52 H14         -2.1090    -2.5380    -0.5830 hc         1 525       0.055700
     53 H15         -1.3570    -2.4640     0.9960 hc         1 525       0.055700
     54 H16         -2.8820     0.0000    -1.6270 hn         1 525       0.333500
     55 H17         -4.5080    -2.7460    -0.7780 ha         1 525       0.109000
     56 H18         -6.7310    -2.9540     0.3110 ha         1 525       0.115000
     57 H19         -6.9850    -2.4550     2.7410 ha         1 525       0.115000
     58 H20         -5.0030    -1.7530     4.0810 ha         1 525       0.115000
     59 H21         -2.7750    -1.5460     2.9980 ha         1 525       0.109000
     60 H22          4.4230     1.6380     3.5560 hc         1 525       0.037144
     61 H23          3.8450     3.2760     3.8760 hc         1 525       0.037144
     62 H24          2.6990     2.0210     3.4000 hc         1 525       0.037144
     63 H25          5.5720     3.6620     0.5440 hc         1 525       0.037144
     64 H26          5.4230     4.3570     2.1650 hc         1 525       0.037144
     65 H27          6.1450     2.7660     1.9630 hc         1 525       0.037144
     66 H28          1.8770     3.5800     1.5520 hc         1 525       0.037144
     67 H29          3.0780     4.8090     1.9430 hc         1 525       0.037144
     68 H30          2.9900     4.1630     0.2950 hc         1 525       0.037144
     69 H31         -5.4740     2.9630    -0.0010 h1         1 525       0.065700
     70 H32         -6.3500     0.1250     0.3640 h1         1 525       0.065700
     71 H33         -6.9680     1.5590     1.2220 h1         1 525       0.065700
     72 H34         -6.4320     3.4800    -2.1780 hc         1 525       0.068700
     73 H35         -6.4650     1.7780    -2.6670 hc         1 525       0.068700
     74 H36         -8.3390     3.1220    -0.5880 h1         1 525       0.049200
     75 H37         -8.8290     2.2240    -2.0590 h1         1 525       0.049200
@<TRIPOS>BOND
     1     1     2 ar  
     2     1     6 ar  
     3     1    39 1   
     4     2     3 ar  
     5     2    33 1   
     6     3     4 ar  
     7     3    40 1   
     8     4     5 ar  
     9     4     7 1   
    10     5     6 ar  
    11     5    11 1   
    12     6    41 1   
    13     7     8 1   
    14     7    42 1   
    15     7    43 1   
    16     8     9 1   
    17     8    29 1   
    18     8    44 1   
    19     9    10 1   
    20     9    45 1   
    21     9    46 1   
    22    10    11 1   
    23    10    12 1   
    24    11    27 2   
    25    11    28 2   
    26    12    13 1   
    27    12    47 1   
    28    12    48 1   
    29    13    14 1   
    30    13    15 1   
    31    13    49 1   
    32    14    16 1   
    33    14    17 1   
    34    14    50 1   
    35    15    51 1   
    36    16    21 1   
    37    16    52 1   
    38    16    53 1   
    39    17    18 1   
    40    17    54 1   
    41    18    19 1   
    42    18    20 2   
    43    19    34 1   
    44    21    22 ar  
    45    21    26 ar  
    46    22    23 ar  
    47    22    55 1   
    48    23    24 ar  
    49    23    56 1   
    50    24    25 ar  
    51    24    57 1   
    52    25    26 ar  
    53    25    58 1   
    54    26    59 1   
    55    29    30 1   
    56    29    31 1   
    57    29    32 1   
    58    30    60 1   
    59    30    61 1   
    60    30    62 1   
    61    31    63 1   
    62    31    64 1   
    63    31    65 1   
    64    32    66 1   
    65    32    67 1   
    66    32    68 1   
    67    34    35 1   
    68    34    36 1   
    69    34    69 1   
    70    35    37 1   
    71    35    70 1   
    72    35    71 1   
    73    36    38 1   
    74    36    72 1   
    75    36    73 1   
    76    37    38 1   
    77    38    74 1   
    78    38    75 1   
@<TRIPOS>SUBSTRUCTURE
     1 525         1 TEMP              0 ****  ****    0 ROOT
