@<TRIPOS>MOLECULE
525
   75    78     1     0     0
SMALL
bcc


@<TRIPOS>ATOM
      1 C1           5.9950    -2.7430    -1.0380 ca         1 525      -0.189000
      2 C2           6.4770    -2.3080     0.1810 ca         1 525       0.190900
      3 C3           5.9050    -1.2590     0.8700 ca         1 525      -0.199000
      4 C4           4.7970    -0.5890     0.3550 ca         1 525       0.046700
      5 C5           4.3050    -1.0300    -0.8780 ca         1 525      -0.291500
      6 C6           4.8950    -2.0900    -1.5620 ca         1 525      -0.007000
      7 C7           4.2220     0.5360     1.1810 c3         1 525      -0.046100
      8 C8           3.9250     1.8350     0.4130 c3         1 525      -0.080700
      9 C9           2.4810     1.8060    -0.1000 c3         1 525       0.227800
     10 N10          2.0690     0.4760    -0.5400 n3         1 525      -0.797500
     11 S11          2.9330    -0.2600    -1.7040 sy         1 525       1.341200
     12 C12          0.8580    -0.1270    -0.0140 c3         1 525       0.203800
     13 C13         -0.4040     0.4550    -0.6490 c3         1 525       0.120100
     14 C14         -1.6710    -0.1580    -0.0370 c3         1 525       0.095700
     15 O15         -0.3960     0.3700    -2.0530 oh         1 525      -0.595800
     16 C16         -1.8040    -1.6710    -0.2880 c3         1 525      -0.057100
     17 N17         -2.8270     0.5430    -0.5460 ns         1 525      -0.551900
     18 C18         -3.8410     0.9440     0.2450 c          1 525       0.758100
     19 O19         -4.9090     1.2850    -0.4870 os         1 525      -0.426900
     20 O20         -3.8080     1.0150     1.4560 o          1 525      -0.595000
     21 C21         -3.1080    -2.2050     0.2350 ca         1 525      -0.090300
     22 C22         -4.2050    -2.3590    -0.6070 ca         1 525      -0.118500
     23 C23         -5.4270    -2.7990    -0.1150 ca         1 525      -0.125000
     24 C24         -5.5680    -3.0910     1.2350 ca         1 525      -0.125000
     25 C25         -4.4790    -2.9430     2.0850 ca         1 525      -0.125000
     26 C26         -3.2610    -2.5030     1.5870 ca         1 525      -0.118500
     27 O27          3.4690     0.7540    -2.6000 o          1 525      -0.615800
     28 O28          2.1290    -1.3350    -2.2770 o          1 525      -0.615800
     29 C29          4.2250     3.1160     1.2350 c3         1 525      -0.033000
     30 C30          3.5020     3.1130     2.5840 c3         1 525      -0.089100
     31 C31          5.7340     3.2180     1.4730 c3         1 525      -0.089100
     32 C32          3.7940     4.3510     0.4360 c3         1 525      -0.089100
     33 F33          7.5370    -2.9230     0.7160 f          1 525      -0.134900
     34 C34         -6.0300     1.8030     0.2230 c5         1 525       0.137100
     35 C35         -6.7340     0.7730     1.1330 c5         1 525       0.102400
     36 C36         -7.1130     2.1910    -0.7760 c5         1 525      -0.120400
     37 O37         -8.0930     0.7340     0.7330 os         1 525      -0.405600
     38 C38         -8.3730     1.9280     0.0280 c5         1 525       0.127400
     39 H1           6.4600    -3.5650    -1.5640 ha         1 525       0.158000
     40 H2           6.3230    -0.9600     1.8230 ha         1 525       0.150000
     41 H3           4.5000    -2.4190    -2.5140 ha         1 525       0.156000
     42 H4           3.3190     0.1800     1.6860 hc         1 525       0.062200
     43 H5           4.9360     0.7300     1.9800 hc         1 525       0.062200
     44 H6           4.5930     1.8760    -0.4540 hc         1 525       0.075700
     45 H7           1.8000     2.0620     0.7130 h1         1 525       0.064200
     46 H8           2.3240     2.5400    -0.8900 h1         1 525       0.064200
     47 H9           0.9100    -1.2080    -0.1390 h1         1 525       0.064200
     48 H10          0.8270     0.0470     1.0650 h1         1 525       0.064200
     49 H11         -0.4380     1.5250    -0.4190 h1         1 525       0.084700
     50 H12         -1.6320     0.0150     1.0400 h1         1 525       0.085700
     51 H13         -0.0960    -0.5040    -2.3250 ho         1 525       0.424000
     52 H14         -1.7280    -1.8750    -1.3590 hc         1 525       0.055700
     53 H15         -0.9740    -2.1910     0.1960 hc         1 525       0.055700
     54 H16         -2.9910     0.4980    -1.5410 hn         1 525       0.333500
     55 H17         -4.1030    -2.1360    -1.6630 ha         1 525       0.127000
     56 H18         -6.2680    -2.9120    -0.7870 ha         1 525       0.133000
     57 H19         -6.5190    -3.4340     1.6220 ha         1 525       0.133000
     58 H20         -4.5790    -3.1720     3.1380 ha         1 525       0.133000
     59 H21         -2.4180    -2.3920     2.2590 ha         1 525       0.127000
     60 H22          3.7860     2.2590     3.2000 hc         1 525       0.037144
     61 H23          3.7520     4.0150     3.1470 hc         1 525       0.037144
     62 H24          2.4160     3.0980     2.4730 hc         1 525       0.037144
     63 H25          6.2860     3.2000     0.5310 hc         1 525       0.037144
     64 H26          5.9740     4.1550     1.9780 hc         1 525       0.037144
     65 H27          6.1180     2.4100     2.0980 hc         1 525       0.037144
     66 H28          2.7100     4.4250     0.3360 hc         1 525       0.037144
     67 H29          4.1340     5.2600     0.9340 hc         1 525       0.037144
     68 H30          4.2240     4.3460    -0.5690 hc         1 525       0.037144
     69 H31         -5.7170     2.6740     0.8020 h1         1 525       0.065700
     70 H32         -6.3100    -0.2290     1.0320 h1         1 525       0.065700
     71 H33         -6.6470     1.0740     2.1830 h1         1 525       0.065700
     72 H34         -7.0280     3.2200    -1.1220 hc         1 525       0.068700
     73 H35         -7.0780     1.5280    -1.6440 hc         1 525       0.068700
     74 H36         -8.5780     2.7590     0.7170 h1         1 525       0.049200
     75 H37         -9.2580     1.7750    -0.5890 h1         1 525       0.049200
@<TRIPOS>BOND
     1     1     2 ar  
     2     1     6 ar  
     3     1    39 1   
     4     2     3 ar  
     5     2    33 1   
     6     3     4 ar  
     7     3    40 1   
     8     4     5 ar  
     9     4     7 1   
    10     5     6 ar  
    11     5    11 1   
    12     6    41 1   
    13     7     8 1   
    14     7    42 1   
    15     7    43 1   
    16     8     9 1   
    17     8    29 1   
    18     8    44 1   
    19     9    10 1   
    20     9    45 1   
    21     9    46 1   
    22    10    11 1   
    23    10    12 1   
    24    11    27 2   
    25    11    28 2   
    26    12    13 1   
    27    12    47 1   
    28    12    48 1   
    29    13    14 1   
    30    13    15 1   
    31    13    49 1   
    32    14    16 1   
    33    14    17 1   
    34    14    50 1   
    35    15    51 1   
    36    16    21 1   
    37    16    52 1   
    38    16    53 1   
    39    17    18 1   
    40    17    54 1   
    41    18    19 1   
    42    18    20 2   
    43    19    34 1   
    44    21    22 ar  
    45    21    26 ar  
    46    22    23 ar  
    47    22    55 1   
    48    23    24 ar  
    49    23    56 1   
    50    24    25 ar  
    51    24    57 1   
    52    25    26 ar  
    53    25    58 1   
    54    26    59 1   
    55    29    30 1   
    56    29    31 1   
    57    29    32 1   
    58    30    60 1   
    59    30    61 1   
    60    30    62 1   
    61    31    63 1   
    62    31    64 1   
    63    31    65 1   
    64    32    66 1   
    65    32    67 1   
    66    32    68 1   
    67    34    35 1   
    68    34    36 1   
    69    34    69 1   
    70    35    37 1   
    71    35    70 1   
    72    35    71 1   
    73    36    38 1   
    74    36    72 1   
    75    36    73 1   
    76    37    38 1   
    77    38    74 1   
    78    38    75 1   
@<TRIPOS>SUBSTRUCTURE
     1 525         1 TEMP              0 ****  ****    0 ROOT
