@<TRIPOS>MOLECULE
526
   75    78     1     0     0
SMALL
No Charge or Current Charge


@<TRIPOS>ATOM
      1 C1           5.2460     2.4740    -3.1020 ca         1 526      -0.172000
      2 C2           5.6140     3.2680    -2.0150 ca         1 526       0.225000
      3 C3           5.2230     2.9160    -0.7180 ca         1 526      -0.179000
      4 C4           4.4540     1.7570    -0.4770 ca         1 526       0.059700
      5 C5           4.0720     0.9500    -1.5880 ca         1 526      -0.277500
      6 C6           4.4770     1.3210    -2.8900 ca         1 526       0.006000
      7 C7           4.0860     1.4670     0.9820 c3         1 526      -0.050100
      8 C8           4.2800    -0.0200     1.4100 c3         1 526      -0.080700
      9 C9           2.9530    -0.8030     1.1810 c3         1 526       0.228800
     10 N10          2.1870    -0.4250    -0.0300 n3         1 526      -0.798500
     11 S11          3.0730    -0.5550    -1.4820 sy         1 526       1.195600
     12 C12          0.8330    -1.0540    -0.0500 c3         1 526       0.199800
     13 C13         -0.3340    -0.0840    -0.4290 c3         1 526       0.141300
     14 C14         -1.7310    -0.5920     0.0450 c3         1 526       0.097700
     15 O15         -0.3670     0.1880    -1.8460 oh         1 526      -0.662000
     16 C16         -2.1460    -1.9710    -0.5420 c3         1 526      -0.057100
     17 N17         -2.7630     0.4150    -0.2350 ns         1 526      -0.487900
     18 C18         -3.7350     0.8110     0.6370 c          1 526       0.642100
     19 O19         -4.5850     1.6590    -0.0170 os         1 526      -0.451100
     20 O20         -3.8180     0.4590     1.8040 o          1 526      -0.545000
     21 C21         -3.5410    -2.4130    -0.1060 ca         1 526      -0.090300
     22 C22         -3.7510    -2.9110     1.1950 ca         1 526      -0.099000
     23 C23         -5.0380    -3.2990     1.6060 ca         1 526      -0.107000
     24 C24         -6.1230    -3.1940     0.7190 ca         1 526      -0.108000
     25 C25         -5.9180    -2.7000    -0.5810 ca         1 526      -0.107000
     26 C26         -4.6320    -2.3100    -0.9910 ca         1 526      -0.099000
     27 O27          2.0960    -0.4880    -2.5720 o          1 526      -0.549500
     28 O28          3.9430    -1.7280    -1.3530 o          1 526      -0.549500
     29 C29          4.8980    -0.2230     2.8540 c3         1 526      -0.034000
     30 C30          5.0150    -1.7410     3.1790 c3         1 526      -0.089100
     31 C31          6.3420     0.3630     2.9160 c3         1 526      -0.089100
     32 C32          4.0370     0.4510     3.9610 c3         1 526      -0.089100
     33 F33          6.3520     4.3820    -2.2150 f          1 526      -0.172000
     34 C34         -5.7440     2.0680     0.7560 c5         1 526       0.160300
     35 C35         -6.7460     0.8640     0.8910 c5         1 526       0.123600
     36 C36         -6.5330     3.0910    -0.1080 c5         1 526      -0.120400
     37 O37         -7.9370     1.2650     0.1750 os         1 526      -0.447000
     38 C38         -7.9880     2.7000     0.2260 c5         1 526       0.147600
     39 H1           5.5530     2.7520    -4.1070 ha         1 526       0.138000
     40 H2           5.5260     3.5570     0.1050 ha         1 526       0.131000
     41 H3           4.1960     0.7130    -3.7500 ha         1 526       0.137000
     42 H4           4.6760     2.1200     1.6290 hc         1 526       0.066700
     43 H5           3.0510     1.7790     1.1700 hc         1 526       0.066700
     44 H6           5.0220    -0.4480     0.7250 hc         1 526       0.076700
     45 H7           3.1720    -1.8790     1.1640 h1         1 526       0.057700
     46 H8           2.3140    -0.6290     2.0550 h1         1 526       0.057700
     47 H9           0.8130    -1.9380    -0.7040 h1         1 526       0.070200
     48 H10          0.5920    -1.4310     0.9540 h1         1 526       0.070200
     49 H11         -0.1400     0.8510     0.1150 h1         1 526       0.084700
     50 H12         -1.6710    -0.7100     1.1360 h1         1 526       0.087700
     51 H13          0.5500     0.0120    -2.1840 ho         1 526       0.458000
     52 H14         -2.0960    -1.9260    -1.6370 hc         1 526       0.055200
     53 H15         -1.4170    -2.7310    -0.2380 hc         1 526       0.055200
     54 H16         -2.8100     0.8080    -1.1660 hn         1 526       0.333500
     55 H17         -2.9190    -2.9910     1.8900 ha         1 526       0.109500
     56 H18         -5.1950    -3.6800     2.6130 ha         1 526       0.115500
     57 H19         -7.1190    -3.4930     1.0370 ha         1 526       0.115000
     58 H20         -6.7570    -2.6160    -1.2680 ha         1 526       0.115500
     59 H21         -4.4860    -1.9220    -1.9970 ha         1 526       0.109500
     60 H22          5.5690    -2.2700     2.3940 hc         1 526       0.037367
     61 H23          5.5440    -1.9010     4.1270 hc         1 526       0.037367
     62 H24          4.0300    -2.2120     3.2800 hc         1 526       0.037367
     63 H25          6.3540     1.4540     2.8270 hc         1 526       0.037367
     64 H26          6.8210     0.1180     3.8720 hc         1 526       0.037367
     65 H27          6.9680    -0.0500     2.1160 hc         1 526       0.037367
     66 H28          3.0310     0.0210     4.0140 hc         1 526       0.037367
     67 H29          4.5010     0.3160     4.9460 hc         1 526       0.037367
     68 H30          3.9360     1.5300     3.7940 hc         1 526       0.037367
     69 H31         -5.4460     2.4820     1.7300 h1         1 526       0.068700
     70 H32         -6.3600    -0.0700     0.4620 h1         1 526       0.065700
     71 H33         -7.0020     0.6840     1.9440 h1         1 526       0.065700
     72 H34         -6.3080     4.1290     0.1590 hc         1 526       0.067700
     73 H35         -6.3340     2.9700    -1.1790 hc         1 526       0.067700
     74 H36         -8.2830     3.0200     1.2360 h1         1 526       0.049700
     75 H37         -8.7170     3.0810    -0.5020 h1         1 526       0.049700
@<TRIPOS>BOND
     1     1     2 ar  
     2     1     6 ar  
     3     1    39 1   
     4     2     3 ar  
     5     2    33 1   
     6     3     4 ar  
     7     3    40 1   
     8     4     5 ar  
     9     4     7 1   
    10     5     6 ar  
    11     5    11 1   
    12     6    41 1   
    13     7     8 1   
    14     7    42 1   
    15     7    43 1   
    16     8     9 1   
    17     8    29 1   
    18     8    44 1   
    19     9    10 1   
    20     9    45 1   
    21     9    46 1   
    22    10    11 1   
    23    10    12 1   
    24    11    27 2   
    25    11    28 2   
    26    12    13 1   
    27    12    47 1   
    28    12    48 1   
    29    13    14 1   
    30    13    15 1   
    31    13    49 1   
    32    14    16 1   
    33    14    17 1   
    34    14    50 1   
    35    15    51 1   
    36    16    21 1   
    37    16    52 1   
    38    16    53 1   
    39    17    18 1   
    40    17    54 1   
    41    18    19 1   
    42    18    20 2   
    43    19    34 1   
    44    21    22 ar  
    45    21    26 ar  
    46    22    23 ar  
    47    22    55 1   
    48    23    24 ar  
    49    23    56 1   
    50    24    25 ar  
    51    24    57 1   
    52    25    26 ar  
    53    25    58 1   
    54    26    59 1   
    55    29    30 1   
    56    29    31 1   
    57    29    32 1   
    58    30    60 1   
    59    30    61 1   
    60    30    62 1   
    61    31    63 1   
    62    31    64 1   
    63    31    65 1   
    64    32    66 1   
    65    32    67 1   
    66    32    68 1   
    67    34    35 1   
    68    34    36 1   
    69    34    69 1   
    70    35    37 1   
    71    35    70 1   
    72    35    71 1   
    73    36    38 1   
    74    36    72 1   
    75    36    73 1   
    76    37    38 1   
    77    38    74 1   
    78    38    75 1   
@<TRIPOS>SUBSTRUCTURE
     1 526         1 TEMP              0 ****  ****    0 ROOT
