@<TRIPOS>MOLECULE
526
   75    78     1     0     0
SMALL
abcg2


@<TRIPOS>ATOM
      1 C1           4.1150     1.7540    -3.4070 ca         1 526      -0.172000
      2 C2           4.2030     2.7810    -2.4900 ca         1 526       0.225000
      3 C3           3.9840     2.5870    -1.1420 ca         1 526      -0.179000
      4 C4           3.6580     1.3250    -0.6500 ca         1 526       0.059700
      5 C5           3.5750     0.2820    -1.5760 ca         1 526      -0.277500
      6 C6           3.7980     0.4940    -2.9330 ca         1 526       0.006000
      7 C7           3.3980     1.1950     0.8270 c3         1 526      -0.050100
      8 C8           4.0870     0.0080     1.5200 c3         1 526      -0.080700
      9 C9           3.1440    -1.1980     1.5270 c3         1 526       0.228800
     10 N10          2.4130    -1.3770     0.2730 n3         1 526      -0.798500
     11 S11          3.2510    -1.4060    -1.1240 sy         1 526       1.195600
     12 C12          1.0000    -1.7300     0.2950 c3         1 526       0.199800
     13 C13          0.0890    -0.5200     0.1270 c3         1 526       0.141300
     14 C14         -1.3930    -0.9040     0.2370 c3         1 526       0.097700
     15 O15          0.3690     0.1960    -1.0520 oh         1 526      -0.662000
     16 C16         -1.8320    -1.9330    -0.8210 c3         1 526      -0.057100
     17 N17         -2.1920     0.2960     0.1580 ns         1 526      -0.487900
     18 C18         -3.2450     0.5240     0.9660 c          1 526       0.642100
     19 O19         -3.9570     1.5710     0.5310 os         1 526      -0.451100
     20 O20         -3.5170    -0.1050     1.9680 o          1 526      -0.545000
     21 C21         -3.3130    -2.1810    -0.7930 ca         1 526      -0.090300
     22 C22         -3.8670    -3.0540     0.1400 ca         1 526      -0.099000
     23 C23         -5.2380    -3.2610     0.1950 ca         1 526      -0.107000
     24 C24         -6.0800    -2.5920    -0.6850 ca         1 526      -0.108000
     25 C25         -5.5400    -1.7170    -1.6180 ca         1 526      -0.107000
     26 C26         -4.1670    -1.5150    -1.6680 ca         1 526      -0.099000
     27 O27          2.3930    -1.9700    -2.1600 o          1 526      -0.549500
     28 O28          4.5420    -2.0380    -0.8880 o          1 526      -0.549500
     29 C29          4.6020     0.3500     2.9450 c3         1 526      -0.034000
     30 C30          5.1680    -0.9100     3.6100 c3         1 526      -0.089100
     31 C31          5.7440     1.3650     2.8320 c3         1 526      -0.089100
     32 C32          3.4990     0.9330     3.8320 c3         1 526      -0.089100
     33 F33          4.5140     4.0100    -2.9180 f          1 526      -0.172000
     34 C34         -5.0970     1.9360     1.3070 c5         1 526       0.160300
     35 C35         -6.2540     0.9180     1.2240 c5         1 526       0.123600
     36 C36         -5.6970     3.2120     0.7190 c5         1 526      -0.120400
     37 O37         -7.3130     1.5620     0.5430 os         1 526      -0.447000
     38 C38         -7.1900     2.9430     0.8170 c5         1 526       0.147600
     39 H1           4.2890     1.9270    -4.4600 ha         1 526       0.138000
     40 H2           4.0620     3.4260    -0.4610 ha         1 526       0.131000
     41 H3           3.7230    -0.3210    -3.6400 ha         1 526       0.137000
     42 H4           3.7090     2.1330     1.2860 hc         1 526       0.066700
     43 H5           2.3170     1.1470     0.9870 hc         1 526       0.066700
     44 H6           4.9800    -0.2630     0.9480 hc         1 526       0.076700
     45 H7           3.6750    -2.1150     1.7880 h1         1 526       0.057700
     46 H8           2.3760    -1.0410     2.2860 h1         1 526       0.057700
     47 H9           0.8010    -2.4870    -0.4640 h1         1 526       0.070200
     48 H10          0.7970    -2.2090     1.2540 h1         1 526       0.070200
     49 H11          0.2910     0.1800     0.9450 h1         1 526       0.084700
     50 H12         -1.5520    -1.3310     1.2290 h1         1 526       0.087700
     51 H13          0.4090    -0.4060    -1.8020 ho         1 526       0.458000
     52 H14         -1.5410    -1.5890    -1.8180 hc         1 526       0.055200
     53 H15         -1.3030    -2.8720    -0.6420 hc         1 526       0.055200
     54 H16         -2.0990     0.8630    -0.6710 hn         1 526       0.333500
     55 H17         -3.2170    -3.5790     0.8300 ha         1 526       0.109500
     56 H18         -5.6510    -3.9470     0.9240 ha         1 526       0.115500
     57 H19         -7.1490    -2.7540    -0.6440 ha         1 526       0.115000
     58 H20         -6.1870    -1.1900    -2.3060 ha         1 526       0.115500
     59 H21         -3.7520    -0.8330    -2.4020 ha         1 526       0.109500
     60 H22          5.9010    -1.4010     2.9650 hc         1 526       0.037367
     61 H23          5.6710    -0.6480     4.5430 hc         1 526       0.037367
     62 H24          4.3940    -1.6390     3.8540 hc         1 526       0.037367
     63 H25          5.4310     2.3040     2.3750 hc         1 526       0.037367
     64 H26          6.1340     1.6050     3.8230 hc         1 526       0.037367
     65 H27          6.5690     0.9650     2.2390 hc         1 526       0.037367
     66 H28          2.6540     0.2510     3.9450 hc         1 526       0.037367
     67 H29          3.8890     1.1290     4.8330 hc         1 526       0.037367
     68 H30          3.1160     1.8790     3.4460 hc         1 526       0.037367
     69 H31         -4.7950     2.0860     2.3440 h1         1 526       0.068700
     70 H32         -5.9860     0.0110     0.6800 h1         1 526       0.065700
     71 H33         -6.5620     0.6310     2.2360 h1         1 526       0.065700
     72 H34         -5.3880     4.1110     1.2500 hc         1 526       0.067700
     73 H35         -5.4030     3.3170    -0.3280 hc         1 526       0.067700
     74 H36         -7.5660     3.1830     1.8210 h1         1 526       0.049700
     75 H37         -7.7810     3.5020     0.0910 h1         1 526       0.049700
@<TRIPOS>BOND
     1     1     2 ar  
     2     1     6 ar  
     3     1    39 1   
     4     2     3 ar  
     5     2    33 1   
     6     3     4 ar  
     7     3    40 1   
     8     4     5 ar  
     9     4     7 1   
    10     5     6 ar  
    11     5    11 1   
    12     6    41 1   
    13     7     8 1   
    14     7    42 1   
    15     7    43 1   
    16     8     9 1   
    17     8    29 1   
    18     8    44 1   
    19     9    10 1   
    20     9    45 1   
    21     9    46 1   
    22    10    11 1   
    23    10    12 1   
    24    11    27 2   
    25    11    28 2   
    26    12    13 1   
    27    12    47 1   
    28    12    48 1   
    29    13    14 1   
    30    13    15 1   
    31    13    49 1   
    32    14    16 1   
    33    14    17 1   
    34    14    50 1   
    35    15    51 1   
    36    16    21 1   
    37    16    52 1   
    38    16    53 1   
    39    17    18 1   
    40    17    54 1   
    41    18    19 1   
    42    18    20 2   
    43    19    34 1   
    44    21    22 ar  
    45    21    26 ar  
    46    22    23 ar  
    47    22    55 1   
    48    23    24 ar  
    49    23    56 1   
    50    24    25 ar  
    51    24    57 1   
    52    25    26 ar  
    53    25    58 1   
    54    26    59 1   
    55    29    30 1   
    56    29    31 1   
    57    29    32 1   
    58    30    60 1   
    59    30    61 1   
    60    30    62 1   
    61    31    63 1   
    62    31    64 1   
    63    31    65 1   
    64    32    66 1   
    65    32    67 1   
    66    32    68 1   
    67    34    35 1   
    68    34    36 1   
    69    34    69 1   
    70    35    37 1   
    71    35    70 1   
    72    35    71 1   
    73    36    38 1   
    74    36    72 1   
    75    36    73 1   
    76    37    38 1   
    77    38    74 1   
    78    38    75 1   
@<TRIPOS>SUBSTRUCTURE
     1 526         1 TEMP              0 ****  ****    0 ROOT
