@<TRIPOS>MOLECULE
527
   60    63     1     0     0
SMALL
No Charge or Current Charge


@<TRIPOS>ATOM
      1 S1          44.9810    14.2770    -0.1490 ss         1 527       0.226000
      2 C2          44.9630    15.6680     0.9260 cc         1 527      -0.238600
      3 C3          45.5390    15.3460     2.1380 cd         1 527       0.107100
      4 C4          45.9810    13.9860     2.2580 cd         1 527      -0.030900
      5 C5          45.7720    13.3000     1.0830 cc         1 527      -0.266000
      6 C6          44.3980    16.9690     0.4980 c          1 527       0.735600
      7 O7          43.9330    17.0430    -0.6290 o          1 527      -0.702500
      8 O8          44.4080    17.9280     1.2560 o          1 527      -0.702500
      9 C9          46.0720    11.8790     0.9440 ca         1 527       0.093000
     10 C10         47.3800    11.3990     1.1380 ca         1 527      -0.163000
     11 C11         47.6680    10.0330     1.0020 ca         1 527       0.297000
     12 C12         46.6420     9.1400     0.6450 ca         1 527      -0.212000
     13 C13         45.3360     9.6120     0.4340 ca         1 527      -0.088000
     14 C14         45.0540    10.9790     0.5820 ca         1 527      -0.146000
     15 Br19        46.6330    13.1910     3.8560 br         1 527      -0.117100
     16 O20         45.6280    16.2570     3.1570 os         1 527      -0.292100
     17 C21         46.9330    16.6330     3.6670 c3         1 527       0.024600
     18 C22         46.8650    17.6170     4.8770 c          1 527       0.734000
     19 O25         47.9240    18.0410     5.3220 o          1 527      -0.739500
     20 O26         45.7780    17.9310     5.3500 o          1 527      -0.739500
     21 N29         48.9750     9.5890     1.2130 nu         1 527      -0.961200
     22 C30         49.3210     8.3040     1.8460 c6         1 527       0.236500
     23 C31         50.8500     8.1080     1.8160 c6         1 527      -0.098900
     24 C32         51.2430     6.8020     2.5400 c6         1 527       0.197800
     25 N33         50.7400     6.7880     3.9370 n3         1 527      -0.719500
     26 C34         49.2650     6.9590     3.9980 c6         1 527       0.197800
     27 C35         48.8220     8.2670     3.3070 c6         1 527      -0.098900
     28 S46         51.3650     5.5150     4.9230 s6         1 527       1.181100
     29 O47         50.7930     5.7070     6.2600 o          1 527      -0.528000
     30 O48         52.8230     5.5450     4.7640 o          1 527      -0.528000
     31 C49         50.7120     3.9920     4.2010 c3         1 527      -0.286100
     32 C50         51.1470     2.7260     4.9280 ca         1 527      -0.068300
     33 C53         52.3250     2.0580     4.5440 ca         1 527      -0.086500
     34 C54         52.7260     0.8880     5.2140 ca         1 527      -0.111000
     35 C55         51.9500     0.3810     6.2700 ca         1 527      -0.107000
     36 C56         50.7720     1.0440     6.6550 ca         1 527      -0.111000
     37 C57         50.3710     2.2130     5.9850 ca         1 527      -0.086500
     38 H10         48.1720    12.0940     1.4000 ha         1 527       0.127000
     39 H12         46.8480     8.0810     0.5220 ha         1 527       0.085000
     40 H13         44.5440     8.9200     0.1550 ha         1 527       0.089000
     41 H14         44.0420    11.3420     0.4210 ha         1 527       0.125000
     42 H211        47.5120    17.1210     2.8730 h1         1 527       0.016700
     43 H212        47.5020    15.7590     3.9960 h1         1 527       0.016700
     44 HN29        49.6560    10.3410     1.3220 hn         1 527       0.471000
     45 H30         48.8620     7.4710     1.2920 h1         1 527       0.051700
     46 H311        51.3530     8.9550     2.3020 hc         1 527       0.065950
     47 H312        51.2070     8.0760     0.7780 hc         1 527       0.065950
     48 H321        52.3400     6.7200     2.5200 h1         1 527       0.048450
     49 H322        50.8440     5.9460     1.9760 h1         1 527       0.048450
     50 H341        48.9200     6.9940     5.0420 h1         1 527       0.048450
     51 H342        48.7570     6.1100     3.5170 h1         1 527       0.048450
     52 H351        47.7280     8.3440     3.3390 hc         1 527       0.065950
     53 H352        49.2180     9.1260     3.8650 hc         1 527       0.065950
     54 H491        51.0530     3.9710     3.1620 h1         1 527       0.093700
     55 H492        49.6210     4.0850     4.2170 h1         1 527       0.093700
     56 H53         52.9320     2.4440     3.7280 ha         1 527       0.120500
     57 H54         53.6370     0.3760     4.9150 ha         1 527       0.111000
     58 H55         52.2600    -0.5230     6.7890 ha         1 527       0.107000
     59 H56         50.1700     0.6530     7.4720 ha         1 527       0.111000
     60 H57         49.4580     2.7210     6.2900 ha         1 527       0.120500
@<TRIPOS>BOND
     1     1     2 1   
     2     1     5 1   
     3     2     3 2   
     4     2     6 1   
     5     3     4 1   
     6     3    16 1   
     7     4     5 2   
     8     4    15 1   
     9     5     9 1   
    10     6     7 1   
    11     6     8 1   
    12     9    10 ar  
    13     9    14 ar  
    14    10    11 ar  
    15    10    38 1   
    16    11    12 ar  
    17    11    21 1   
    18    12    13 ar  
    19    12    39 1   
    20    13    14 ar  
    21    13    40 1   
    22    14    41 1   
    23    16    17 1   
    24    17    18 1   
    25    17    42 1   
    26    17    43 1   
    27    18    19 1   
    28    18    20 1   
    29    21    22 1   
    30    21    44 1   
    31    22    23 1   
    32    22    27 1   
    33    22    45 1   
    34    23    24 1   
    35    23    46 1   
    36    23    47 1   
    37    24    25 1   
    38    24    48 1   
    39    24    49 1   
    40    25    26 1   
    41    25    28 1   
    42    26    27 1   
    43    26    50 1   
    44    26    51 1   
    45    27    52 1   
    46    27    53 1   
    47    28    29 2   
    48    28    30 2   
    49    28    31 1   
    50    31    32 1   
    51    31    54 1   
    52    31    55 1   
    53    32    33 ar  
    54    32    37 ar  
    55    33    34 ar  
    56    33    56 1   
    57    34    35 ar  
    58    34    57 1   
    59    35    36 ar  
    60    35    58 1   
    61    36    37 ar  
    62    36    59 1   
    63    37    60 1   
@<TRIPOS>SUBSTRUCTURE
     1 527         1 TEMP              0 ****  ****    0 ROOT
