@<TRIPOS>MOLECULE
527
   60    63     1     0     0
SMALL
abcg2


@<TRIPOS>ATOM
      1 S1          45.1680    14.2610     0.0070 ss         1 527       0.226000
      2 C2          45.1810    15.8050     0.7660 cc         1 527      -0.238600
      3 C3          45.6340    15.7080     2.0550 cd         1 527       0.107100
      4 C4          45.9730    14.3640     2.4020 cd         1 527      -0.030900
      5 C5          45.7780    13.4560     1.4010 cc         1 527      -0.266000
      6 C6          44.6840    16.9620    -0.0650 c          1 527       0.735600
      7 O7          44.2950    16.6320    -1.2030 o          1 527      -0.702500
      8 O8          44.7050    18.0930     0.4440 o          1 527      -0.702500
      9 C9          46.0160    12.0100     1.3730 ca         1 527       0.093000
     10 C10         47.2430    11.5040     1.7780 ca         1 527      -0.163000
     11 C11         47.5130    10.1280     1.7550 ca         1 527       0.297000
     12 C12         46.5040     9.2670     1.3010 ca         1 527      -0.212000
     13 C13         45.2850     9.7810     0.8830 ca         1 527      -0.088000
     14 C14         45.0230    11.1410     0.9130 ca         1 527      -0.146000
     15 BR19        46.5180    13.9360     4.1440 br         1 527      -0.117100
     16 O20         45.7410    16.7060     2.9470 os         1 527      -0.292100
     17 C21         46.9400    17.4720     2.8390 c3         1 527       0.024600
     18 C22         47.0370    18.5250     3.9560 c          1 527       0.734000
     19 O25         48.0530    19.2430     3.8660 o          1 527      -0.739500
     20 O26         46.1420    18.5640     4.8130 o          1 527      -0.739500
     21 N29         48.7600     9.6910     2.1270 nu         1 527      -0.961200
     22 C30         49.0710     8.3130     2.4270 c6         1 527       0.236500
     23 C31         50.5830     8.1510     2.5190 c6         1 527      -0.098900
     24 C32         50.9640     6.7170     2.8450 c6         1 527       0.197800
     25 N33         50.3000     6.2970     4.0810 n3         1 527      -0.719500
     26 C34         48.8380     6.3710     4.0110 c6         1 527       0.197800
     27 C35         48.4260     7.8040     3.7170 c6         1 527      -0.098900
     28 S46         50.9730     5.0370     4.9070 s6         1 527       1.181100
     29 O47         50.1930     4.8370     6.1180 o          1 527      -0.528000
     30 O48         52.3980     5.3080     5.0290 o          1 527      -0.528000
     31 C49         50.7770     3.5680     3.8760 c3         1 527      -0.286100
     32 C50         51.4160     2.3940     4.5470 ca         1 527      -0.068300
     33 C53         52.7600     2.1060     4.3270 ca         1 527      -0.086500
     34 C54         53.3620     1.0320     4.9670 ca         1 527      -0.111000
     35 C55         52.6250     0.2380     5.8360 ca         1 527      -0.107000
     36 C56         51.2840     0.5210     6.0600 ca         1 527      -0.111000
     37 C57         50.6830     1.5960     5.4210 ca         1 527      -0.086500
     38 H10         48.0240    12.1840     2.0970 ha         1 527       0.127000
     39 H12         46.6610     8.1970     1.2660 ha         1 527       0.085000
     40 H13         44.5200     9.0970     0.5370 ha         1 527       0.089000
     41 H14         44.0590    11.5230     0.6040 ha         1 527       0.125000
     42 H211        46.9740    17.9680     1.8640 h1         1 527       0.016700
     43 H212        47.8150    16.8120     2.8990 h1         1 527       0.016700
     44 HN29        49.3050    10.3630     2.6450 hn         1 527       0.471000
     45 H30         48.7220     7.6920     1.5940 h1         1 527       0.051700
     46 H311        50.9780     8.8140     3.2950 hc         1 527       0.065950
     47 H312        51.0510     8.4320     1.5740 hc         1 527       0.065950
     48 H321        52.0430     6.6470     2.9670 h1         1 527       0.048450
     49 H322        50.6790     6.0610     2.0120 h1         1 527       0.048450
     50 H341        48.4100     6.0520     4.9580 h1         1 527       0.048450
     51 H342        48.4540     5.7050     3.2260 h1         1 527       0.048450
     52 H351        47.3370     7.8440     3.6470 hc         1 527       0.065950
     53 H352        48.7240     8.4490     4.5480 hc         1 527       0.065950
     54 H491        51.2390     3.7890     2.9120 h1         1 527       0.093700
     55 H492        49.7050     3.4280     3.7250 h1         1 527       0.093700
     56 H53         53.3370     2.7200     3.6460 ha         1 527       0.120500
     57 H54         54.4060     0.8140     4.7860 ha         1 527       0.111000
     58 H55         53.0930    -0.6020     6.3330 ha         1 527       0.107000
     59 H56         50.7040    -0.0970     6.7330 ha         1 527       0.111000
     60 H57         49.6350     1.8110     5.5940 ha         1 527       0.120500
@<TRIPOS>BOND
     1     1     2 1   
     2     1     5 1   
     3     2     3 2   
     4     2     6 1   
     5     3     4 1   
     6     3    16 1   
     7     4     5 2   
     8     4    15 1   
     9     5     9 1   
    10     6     7 1   
    11     6     8 1   
    12     9    10 ar  
    13     9    14 ar  
    14    10    11 ar  
    15    10    38 1   
    16    11    12 ar  
    17    11    21 1   
    18    12    13 ar  
    19    12    39 1   
    20    13    14 ar  
    21    13    40 1   
    22    14    41 1   
    23    16    17 1   
    24    17    18 1   
    25    17    42 1   
    26    17    43 1   
    27    18    19 1   
    28    18    20 1   
    29    21    22 1   
    30    21    44 1   
    31    22    23 1   
    32    22    27 1   
    33    22    45 1   
    34    23    24 1   
    35    23    46 1   
    36    23    47 1   
    37    24    25 1   
    38    24    48 1   
    39    24    49 1   
    40    25    26 1   
    41    25    28 1   
    42    26    27 1   
    43    26    50 1   
    44    26    51 1   
    45    27    52 1   
    46    27    53 1   
    47    28    29 2   
    48    28    30 2   
    49    28    31 1   
    50    31    32 1   
    51    31    54 1   
    52    31    55 1   
    53    32    33 ar  
    54    32    37 ar  
    55    33    34 ar  
    56    33    56 1   
    57    34    35 ar  
    58    34    57 1   
    59    35    36 ar  
    60    35    58 1   
    61    36    37 ar  
    62    36    59 1   
    63    37    60 1   
@<TRIPOS>SUBSTRUCTURE
     1 527         1 TEMP              0 ****  ****    0 ROOT
