@<TRIPOS>MOLECULE
528
   64    65     1     0     0
SMALL
No Charge or Current Charge


@<TRIPOS>ATOM
      1 C37          3.8990     3.3680    -0.8170 ca         1 528      -0.107000
      2 C38          4.8990     4.3380    -1.0060 ca         1 528      -0.117500
      3 C41          5.8700     4.5490    -0.0130 ca         1 528      -0.131000
      4 C40          5.8430     3.7880     1.1670 ca         1 528      -0.117500
      5 C39          4.8430     2.8170     1.3560 ca         1 528      -0.107000
      6 C36          3.8650     2.6030     0.3660 ca         1 528      -0.057300
      7 C35          2.7850     1.5480     0.5680 c3         1 528      -0.038100
      8 C34          3.2210     0.1640     0.0460 c3         1 528      -0.032400
      9 C33          2.1290    -0.9120     0.2430 c3         1 528      -0.358400
     10 S32          2.6080    -2.5260    -0.3800 s6         1 528       1.173100
     11 O32          2.7260    -2.4840    -1.8400 o          1 528      -0.578500
     12 O33          3.7090    -3.0530     0.4280 o          1 528      -0.578500
     13 N31          1.2900    -3.4950    -0.0240 n7         1 528      -0.800300
     14 C27         -0.0870    -3.1940    -0.5980 c3         1 528      -0.131500
     15 C28         -0.6690    -4.4540    -1.3270 c3         1 528      -0.019700
     16 C30         -1.8940    -4.1040    -2.2120 c3         1 528      -0.088100
     17 C29          0.3800    -5.2010    -2.1950 c3         1 528      -0.088100
     18 P24         -1.3030    -2.3840     0.6310 p5         1 528       1.354000
     19 O25         -0.5320    -1.9800     1.8490 o          1 528      -0.802000
     20 O26         -2.4460    -3.2890     0.9690 o          1 528      -0.802000
     21 C15         -1.9050    -0.8810    -0.2640 c3         1 528      -0.408400
     22 C1          -2.6230     0.1900     0.6300 c3         1 528      -0.131400
     23 C2          -3.8930    -0.3440     1.3560 c          1 528       0.749000
     24 O14         -4.8490    -0.7070     0.6830 o          1 528      -0.731500
     25 O13         -3.9110    -0.3150     2.5800 o          1 528      -0.731500
     26 C3          -2.9450     1.4820    -0.1300 ca         1 528       0.011700
     27 C8          -2.6270     2.7300     0.4450 ca         1 528      -0.115000
     28 C4          -3.5660     1.4540    -1.3970 ca         1 528      -0.095000
     29 C5          -3.8570     2.6500    -2.0750 ca         1 528      -0.140000
     30 C6          -3.5330     3.8860    -1.4940 ca         1 528      -0.137000
     31 C7          -2.9160     3.9340    -0.2290 ca         1 528      -0.115300
     32 C9          -2.5780     5.2750     0.4110 c3         1 528       0.201100
     33 N10         -1.2550     5.7590    -0.0160 n8         1 528      -0.999200
     34 H37          3.1510     3.2090    -1.5910 ha         1 528       0.116500
     35 H38          4.9200     4.9260    -1.9210 ha         1 528       0.099500
     36 H41          6.6440     5.2990    -0.1590 ha         1 528       0.095000
     37 H40          6.5960     3.9490     1.9360 ha         1 528       0.099500
     38 H39          4.8300     2.2300     2.2720 ha         1 528       0.116500
     39 H351         2.5320     1.4680     1.6320 hc         1 528       0.058200
     40 H352         1.8620     1.8500     0.0570 hc         1 528       0.058200
     41 H341         3.4680     0.2460    -1.0210 hc         1 528       0.045200
     42 H342         4.1390    -0.1430     0.5650 hc         1 528       0.045200
     43 H331         1.9040    -1.0420     1.3060 h1         1 528       0.116200
     44 H332         1.2210    -0.6330    -0.2980 h1         1 528       0.116200
     45 HN31         1.2600    -3.3740     0.9920 hn         1 528       0.497000
     46 H27          0.0240    -2.4250    -1.3730 h1         1 528       0.039700
     47 H28         -1.0060    -5.1610    -0.5580 hc         1 528       0.066700
     48 H301        -1.6210    -3.3700    -2.9800 hc         1 528       0.027700
     49 H302        -2.2730    -5.0000    -2.7190 hc         1 528       0.027700
     50 H303        -2.7210    -3.6920    -1.6260 hc         1 528       0.027700
     51 H291         1.1890    -5.6150    -1.5820 hc         1 528       0.027700
     52 H292        -0.0840    -6.0420    -2.7250 hc         1 528       0.027700
     53 H293         0.8180    -4.5280    -2.9420 hc         1 528       0.027700
     54 H151        -1.0380    -0.4240    -0.7530 hc         1 528       0.036700
     55 H152        -2.5740    -1.2410    -1.0510 hc         1 528       0.036700
     56 H1          -1.9070     0.4490     1.4190 hc         1 528       0.050700
     57 H8          -2.1540     2.7670     1.4240 ha         1 528       0.109000
     58 H4          -3.8340     0.5050    -1.8550 ha         1 528       0.126000
     59 H5          -4.3370     2.6170    -3.0500 ha         1 528       0.079000
     60 H6          -3.7620     4.8070    -2.0240 ha         1 528       0.093000
     61 H91         -3.3340     6.0230     0.1370 h1         1 528       0.024700
     62 H92         -2.5780     5.1750     1.5060 h1         1 528       0.024700
     63 H101        -1.0260     6.6060     0.5160 hn         1 528       0.378000
     64 H102        -0.5500     5.0780     0.2830 hn         1 528       0.378000
@<TRIPOS>BOND
     1     1     2 ar  
     2     1     6 ar  
     3     1    34 1   
     4     2     3 ar  
     5     2    35 1   
     6     3     4 ar  
     7     3    36 1   
     8     4     5 ar  
     9     4    37 1   
    10     5     6 ar  
    11     5    38 1   
    12     6     7 1   
    13     7     8 1   
    14     7    39 1   
    15     7    40 1   
    16     8     9 1   
    17     8    41 1   
    18     8    42 1   
    19     9    10 1   
    20     9    43 1   
    21     9    44 1   
    22    10    11 2   
    23    10    12 2   
    24    10    13 1   
    25    13    14 1   
    26    13    45 1   
    27    14    15 1   
    28    14    18 1   
    29    14    46 1   
    30    15    16 1   
    31    15    17 1   
    32    15    47 1   
    33    16    48 1   
    34    16    49 1   
    35    16    50 1   
    36    17    51 1   
    37    17    52 1   
    38    17    53 1   
    39    18    19 1   
    40    18    20 1   
    41    18    21 1   
    42    21    22 1   
    43    21    54 1   
    44    21    55 1   
    45    22    23 1   
    46    22    26 1   
    47    22    56 1   
    48    23    24 1   
    49    23    25 1   
    50    26    27 ar  
    51    26    28 ar  
    52    27    31 ar  
    53    27    57 1   
    54    28    29 ar  
    55    28    58 1   
    56    29    30 ar  
    57    29    59 1   
    58    30    31 ar  
    59    30    60 1   
    60    31    32 1   
    61    32    33 1   
    62    32    61 1   
    63    32    62 1   
    64    33    63 1   
    65    33    64 1   
@<TRIPOS>SUBSTRUCTURE
     1 528         1 TEMP              0 ****  ****    0 ROOT
