@<TRIPOS>MOLECULE
528
   64    65     1     0     0
SMALL
abcg2


@<TRIPOS>ATOM
      1 C37          5.1080     2.7970    -1.3550 ca         1 528      -0.107000
      2 C38          6.3070     3.4670    -1.5600 ca         1 528      -0.117500
      3 C41          7.1850     3.6670    -0.5020 ca         1 528      -0.131000
      4 C40          6.8540     3.1910     0.7610 ca         1 528      -0.117500
      5 C39          5.6540     2.5210     0.9600 ca         1 528      -0.107000
      6 C36          4.7650     2.3170    -0.0930 ca         1 528      -0.057300
      7 C35          3.4880     1.5540     0.1200 c3         1 528      -0.038100
      8 C34          3.6690     0.0610    -0.1640 c3         1 528      -0.032400
      9 C33          2.3820    -0.6950     0.1240 c3         1 528      -0.358400
     10 S32          2.5600    -2.4530    -0.1800 s6         1 528       1.173100
     11 O32          2.7270    -2.6450    -1.6160 o          1 528      -0.578500
     12 O33          3.5950    -2.9530     0.7180 o          1 528      -0.578500
     13 N31          1.1600    -3.1740     0.2850 n7         1 528      -0.800300
     14 C27         -0.0840    -2.8880    -0.4420 c3         1 528      -0.131500
     15 C28         -0.6930    -4.1620    -1.0420 c3         1 528      -0.019700
     16 C30         -1.8740    -3.8140    -1.9440 c3         1 528      -0.088100
     17 C29          0.3240    -4.9830    -1.8280 c3         1 528      -0.088100
     18 P24         -1.2450    -1.9890     0.7570 p5         1 528       1.354000
     19 O25         -0.3520    -1.4660     1.8730 o          1 528      -0.802000
     20 O26         -2.3920    -2.8950     1.1430 o          1 528      -0.802000
     21 C15         -1.8440    -0.5780    -0.2450 c3         1 528      -0.408400
     22 C1          -3.0450     0.1060     0.4040 c3         1 528      -0.131400
     23 C2          -4.3650    -0.6920     0.2090 c          1 528       0.749000
     24 O14         -4.5460    -1.2100    -0.9080 o          1 528      -0.731500
     25 O13         -5.1630    -0.6820     1.1660 o          1 528      -0.731500
     26 C3          -3.2840     1.4920    -0.1430 ca         1 528       0.011700
     27 C8          -3.5860     2.5440     0.7180 ca         1 528      -0.115000
     28 C4          -3.2460     1.7530    -1.5120 ca         1 528      -0.095000
     29 C5          -3.4910     3.0330    -1.9890 ca         1 528      -0.140000
     30 C6          -3.7900     4.0710    -1.1150 ca         1 528      -0.137000
     31 C7          -3.8450     3.8310     0.2550 ca         1 528      -0.115300
     32 C9          -4.2030     4.9250     1.2300 c3         1 528       0.201100
     33 N10         -3.6750     6.2170     0.8280 n8         1 528      -0.999200
     34 H37          4.4280     2.6490    -2.1860 ha         1 528       0.116500
     35 H38          6.5550     3.8380    -2.5470 ha         1 528       0.099500
     36 H41          8.1170     4.1930    -0.6590 ha         1 528       0.095000
     37 H40          7.5290     3.3450     1.5930 ha         1 528       0.099500
     38 H39          5.4010     2.1570     1.9490 ha         1 528       0.116500
     39 H351         3.1470     1.6850     1.1500 hc         1 528       0.058200
     40 H352         2.6990     1.9520    -0.5240 hc         1 528       0.058200
     41 H341         3.9660    -0.0780    -1.2060 hc         1 528       0.045200
     42 H342         4.4780    -0.3300     0.4570 hc         1 528       0.045200
     43 H331         2.0710    -0.5900     1.1640 h1         1 528       0.116200
     44 H332         1.5610    -0.3380    -0.5020 h1         1 528       0.116200
     45 HN31         1.0450    -3.0420     1.2890 hn         1 528       0.497000
     46 H27          0.1300    -2.1980    -1.2680 h1         1 528       0.039700
     47 H28         -1.0650    -4.7720    -0.2120 hc         1 528       0.066700
     48 H301        -1.5420    -3.2150    -2.7970 hc         1 528       0.027700
     49 H302        -2.3280    -4.7230    -2.3450 hc         1 528       0.027700
     50 H303        -2.6490    -3.2550    -1.4230 hc         1 528       0.027700
     51 H291         1.1830    -5.2710    -1.2220 hc         1 528       0.027700
     52 H292        -0.1420    -5.8960    -2.2020 hc         1 528       0.027700
     53 H293         0.6960    -4.4250    -2.6890 hc         1 528       0.027700
     54 H151        -1.0120     0.1240    -0.3620 hc         1 528       0.036700
     55 H152        -2.1140    -0.9250    -1.2440 hc         1 528       0.036700
     56 H1          -2.8640     0.2120     1.4780 hc         1 528       0.050700
     57 H8          -3.6070     2.3570     1.7880 ha         1 528       0.109000
     58 H4          -3.0170     0.9560    -2.2080 ha         1 528       0.126000
     59 H5          -3.4520     3.2240    -3.0540 ha         1 528       0.079000
     60 H6          -3.9730     5.0680    -1.4940 ha         1 528       0.093000
     61 H91         -5.2940     5.0110     1.2720 h1         1 528       0.024700
     62 H92         -3.8920     4.6100     2.2350 h1         1 528       0.024700
     63 H101        -4.0040     6.9260     1.4710 hn         1 528       0.378000
     64 H102        -2.6660     6.2100     0.9150 hn         1 528       0.378000
@<TRIPOS>BOND
     1     1     2 ar  
     2     1     6 ar  
     3     1    34 1   
     4     2     3 ar  
     5     2    35 1   
     6     3     4 ar  
     7     3    36 1   
     8     4     5 ar  
     9     4    37 1   
    10     5     6 ar  
    11     5    38 1   
    12     6     7 1   
    13     7     8 1   
    14     7    39 1   
    15     7    40 1   
    16     8     9 1   
    17     8    41 1   
    18     8    42 1   
    19     9    10 1   
    20     9    43 1   
    21     9    44 1   
    22    10    11 2   
    23    10    12 2   
    24    10    13 1   
    25    13    14 1   
    26    13    45 1   
    27    14    15 1   
    28    14    18 1   
    29    14    46 1   
    30    15    16 1   
    31    15    17 1   
    32    15    47 1   
    33    16    48 1   
    34    16    49 1   
    35    16    50 1   
    36    17    51 1   
    37    17    52 1   
    38    17    53 1   
    39    18    19 1   
    40    18    20 1   
    41    18    21 1   
    42    21    22 1   
    43    21    54 1   
    44    21    55 1   
    45    22    23 1   
    46    22    26 1   
    47    22    56 1   
    48    23    24 1   
    49    23    25 1   
    50    26    27 ar  
    51    26    28 ar  
    52    27    31 ar  
    53    27    57 1   
    54    28    29 ar  
    55    28    58 1   
    56    29    30 ar  
    57    29    59 1   
    58    30    31 ar  
    59    30    60 1   
    60    31    32 1   
    61    32    33 1   
    62    32    61 1   
    63    32    62 1   
    64    33    63 1   
    65    33    64 1   
@<TRIPOS>SUBSTRUCTURE
     1 528         1 TEMP              0 ****  ****    0 ROOT
