@<TRIPOS>MOLECULE
52A
   20    20     1     0     0
SMALL
bcc


@<TRIPOS>ATOM
      1 N           -0.6900    -4.5560     1.2150 n8         1 52A      -0.878800
      2 CA          -1.6980    -3.5200     1.0520 c5         1 52A      -0.007800
      3 C           -3.0930    -4.1760     0.9250 c          1 52A       0.935600
      4 O           -3.9740    -3.5320     0.3180 o          1 52A      -0.857800
      5 OXT         -3.2520    -5.2800     1.4880 o          1 52A      -0.857800
      6 CB1         -1.3700    -2.5870    -0.1210 c5         1 52A      -0.043400
      7 CB2         -1.7700    -2.4920     2.2110 c5         1 52A       0.130800
      8 CG1         -1.8660    -1.1770     0.3070 c5         1 52A       0.032500
      9 NG2         -2.3860    -1.2970     1.6730 n7         1 52A      -0.751200
     10 CD          -0.7250    -0.1580     0.1650 c          1 52A       0.931600
     11 OE1         -0.1970     0.3020     1.1940 o          1 52A      -0.865800
     12 OE2         -0.3980     0.1060    -1.0140 o          1 52A      -0.865800
     13 HN1          0.1560    -4.1490     1.5980 hn         1 52A       0.317800
     14 HN2         -1.0280    -5.2260     1.8930 hn         1 52A       0.317800
     15 HB11        -1.8220    -2.9150    -1.0560 hc         1 52A       0.029700
     16 HB12        -0.2870    -2.5900    -0.2780 hc         1 52A       0.029700
     17 HB21        -2.3090    -2.8610     3.0870 h1         1 52A       0.020200
     18 HB22        -0.7460    -2.2620     2.5340 h1         1 52A       0.020200
     19 HG1         -2.6820    -0.8570    -0.3460 h1         1 52A       0.033700
     20 HNG2        -3.3760    -1.4920     1.5910 hn         1 52A       0.327800
@<TRIPOS>BOND
     1     1     2 1   
     2     1    13 1   
     3     1    14 1   
     4     2     3 1   
     5     2     6 1   
     6     2     7 1   
     7     3     4 1   
     8     3     5 1   
     9     6     8 1   
    10     6    15 1   
    11     6    16 1   
    12     7     9 1   
    13     7    17 1   
    14     7    18 1   
    15     8     9 1   
    16     8    10 1   
    17     8    19 1   
    18     9    20 1   
    19    10    11 1   
    20    10    12 1   
@<TRIPOS>SUBSTRUCTURE
     1 52A         1 TEMP              0 ****  ****    0 ROOT
