@<TRIPOS>MOLECULE
52A
   20    20     1     0     0
SMALL
No Charge or Current Charge


@<TRIPOS>ATOM
      1 N           -0.5190    -4.5380     1.5080 n8         1 52A      -0.989200
      2 CA          -1.6340    -3.6200     1.0630 c5         1 52A      -0.007800
      3 C           -2.9540    -4.3560     0.5120 c          1 52A       0.725000
      4 O           -3.4750    -4.0180    -0.5440 o          1 52A      -0.752500
      5 OXT         -3.3790    -5.3260     1.1310 o          1 52A      -0.752500
      6 CB1         -1.0750    -2.5720     0.0150 c5         1 52A      -0.043400
      7 CB2         -2.1460    -2.6860     2.2320 c5         1 52A       0.130800
      8 CG1         -1.7500    -1.2410     0.4580 c5         1 52A       0.032500
      9 NG2         -1.6000    -1.3440     1.9450 n7         1 52A      -0.806400
     10 CD          -1.1090     0.0390    -0.2450 c          1 52A       0.721000
     11 OE1         -0.2140    -0.0820    -1.0740 o          1 52A      -0.760500
     12 OE2         -1.5320     1.1470     0.0620 o          1 52A      -0.760500
     13 HN1          0.1130    -4.0100     2.1200 hn         1 52A       0.373000
     14 HN2         -0.9170    -5.2570     2.1240 hn         1 52A       0.373000
     15 HB11        -1.2890    -2.8290    -1.0280 hc         1 52A       0.029700
     16 HB12         0.0160    -2.4870     0.0890 hc         1 52A       0.029700
     17 HB21        -3.2440    -2.6330     2.2370 h1         1 52A       0.020200
     18 HB22        -1.8370    -3.0380     3.2270 h1         1 52A       0.020200
     19 HG1         -2.8160    -1.2500     0.1870 h1         1 52A       0.033700
     20 HNG2        -2.1540    -0.6170     2.4160 hn         1 52A       0.383000
@<TRIPOS>BOND
     1     1     2 1   
     2     1    13 1   
     3     1    14 1   
     4     2     3 1   
     5     2     6 1   
     6     2     7 1   
     7     3     4 1   
     8     3     5 1   
     9     6     8 1   
    10     6    15 1   
    11     6    16 1   
    12     7     9 1   
    13     7    17 1   
    14     7    18 1   
    15     8     9 1   
    16     8    10 1   
    17     8    19 1   
    18     9    20 1   
    19    10    11 1   
    20    10    12 1   
@<TRIPOS>SUBSTRUCTURE
     1 52A         1 TEMP              0 ****  ****    0 ROOT
