@<TRIPOS>MOLECULE
52B
   23    24     1     0     0
SMALL
abcg2


@<TRIPOS>ATOM
      1 C1           1.7730    -1.6860    -0.0190 ca         1 52B      -0.071000
      2 F1          -1.0320     0.6420     1.8950 f          1 52B      -0.116000
      3 CL1          4.4410    -1.8870     0.3220 cl         1 52B      -0.226000
      4 C2           1.8770     1.0420    -0.5060 ca         1 52B       0.091000
      5 F2          -3.1470     0.6990     1.4920 f          1 52B      -0.116000
      6 CL2          1.9340     2.7340    -0.8260 cl         1 52B      -0.194000
      7 C3           0.6000    -0.9840    -0.2740 ca         1 52B      -0.077800
      8 F3          -1.9230     2.4290     1.0980 f          1 52B      -0.116000
      9 C4           2.9820    -1.0140    -0.0020 ca         1 52B       0.092000
     10 C5           3.0510     0.3480    -0.2500 ca         1 52B      -0.092000
     11 C6           0.6530     0.3910    -0.5100 ca         1 52B       0.145100
     12 C7          -0.6970    -1.6280    -0.3720 ce         1 52B      -0.172200
     13 C8          -1.8160    -0.9070    -0.4580 cf         1 52B      -0.184400
     14 C9          -1.7090     0.5890    -0.3840 c6         1 52B       0.153500
     15 C10         -3.1820    -1.5340    -0.6870 c          1 52B       0.722200
     16 O11         -0.4540     1.0940    -0.8100 os         1 52B      -0.323100
     17 O12         -4.0830    -0.7460    -1.0300 o          1 52B      -0.702000
     18 O13         -3.2630    -2.7640    -0.5330 o          1 52B      -0.702000
     19 C14         -1.9570     1.0940     1.0380 c3         1 52B       0.270000
     20 H1           1.7300    -2.7520     0.1580 ha         1 52B       0.132000
     21 H5           3.9980     0.8690    -0.2420 ha         1 52B       0.130000
     22 H7          -0.7360    -2.7090    -0.4160 ha         1 52B       0.213000
     23 H9          -2.4570     1.0480    -1.0320 h1         1 52B       0.144700
@<TRIPOS>BOND
     1     1     7 ar  
     2     1     9 ar  
     3     1    20 1   
     4     2    19 1   
     5     3     9 1   
     6     4     6 1   
     7     4    10 ar  
     8     4    11 ar  
     9     5    19 1   
    10     7    11 ar  
    11     7    12 1   
    12     8    19 1   
    13     9    10 ar  
    14    10    21 1   
    15    11    16 1   
    16    12    13 2   
    17    12    22 1   
    18    13    14 1   
    19    13    15 1   
    20    14    16 1   
    21    14    19 1   
    22    14    23 1   
    23    15    17 1   
    24    15    18 1   
@<TRIPOS>SUBSTRUCTURE
     1 52B         1 TEMP              0 ****  ****    0 ROOT
