@<TRIPOS>MOLECULE
52B
   23    24     1     0     0
SMALL
No Charge or Current Charge


@<TRIPOS>ATOM
      1 C1           1.7950    -1.6990    -0.0290 ca         1 52B      -0.071000
      2 F1          -1.1090     0.6210     1.9300 f          1 52B      -0.116000
      3 Cl1          4.5000    -1.9370     0.3670 cl         1 52B      -0.226000
      4 C2           1.9360     1.0710    -0.5260 ca         1 52B       0.091000
      5 F2          -3.2350     0.7950     1.5070 f          1 52B      -0.116000
      6 Cl2          2.0500     2.8030    -0.8400 cl         1 52B      -0.194000
      7 C3           0.6220    -0.9750    -0.3100 ca         1 52B      -0.077800
      8 F3          -1.9130     2.4750     1.1200 f          1 52B      -0.116000
      9 C4           3.0330    -1.0350     0.0120 ca         1 52B       0.092000
     10 C5           3.1050     0.3460    -0.2380 ca         1 52B      -0.092000
     11 C6           0.6880     0.4130    -0.5530 ca         1 52B       0.145100
     12 C7          -0.7000    -1.6300    -0.4010 ce         1 52B      -0.172200
     13 C8          -1.8650    -0.9280    -0.4840 cf         1 52B      -0.184400
     14 C9          -1.7610     0.6130    -0.4140 c6         1 52B       0.153500
     15 C10         -3.2090    -1.5770    -0.6590 c          1 52B       0.722200
     16 O11         -0.4660     1.1190    -0.8560 os         1 52B      -0.323100
     17 O12         -4.1870    -0.8610    -0.8070 o          1 52B      -0.702000
     18 O13         -3.2690    -2.7980    -0.6770 o          1 52B      -0.702000
     19 C14         -2.0060     1.1260     1.0500 c3         1 52B       0.270000
     20 H1           1.7500    -2.7700     0.1550 ha         1 52B       0.132000
     21 H5           4.0660     0.8530    -0.2110 ha         1 52B       0.130000
     22 H7          -0.7070    -2.7230    -0.4340 ha         1 52B       0.213000
     23 H9          -2.5360     1.0680    -1.0480 h1         1 52B       0.144700
@<TRIPOS>BOND
     1     1     7 ar  
     2     1     9 ar  
     3     1    20 1   
     4     2    19 1   
     5     3     9 1   
     6     4     6 1   
     7     4    10 ar  
     8     4    11 ar  
     9     5    19 1   
    10     7    11 ar  
    11     7    12 1   
    12     8    19 1   
    13     9    10 ar  
    14    10    21 1   
    15    11    16 1   
    16    12    13 2   
    17    12    22 1   
    18    13    14 1   
    19    13    15 1   
    20    14    16 1   
    21    14    19 1   
    22    14    23 1   
    23    15    17 1   
    24    15    18 1   
@<TRIPOS>SUBSTRUCTURE
     1 52B         1 TEMP              0 ****  ****    0 ROOT
