@<TRIPOS>MOLECULE
52C
   17    18     1     0     0
SMALL
abcg2


@<TRIPOS>ATOM
      1 C1          -2.3400     1.8530    -0.2490 ca         1 52C      -0.110000
      2 C2          -3.1340     0.7320    -0.0510 ca         1 52C      -0.080000
      3 C3          -2.5510    -0.5120     0.1380 ca         1 52C      -0.108000
      4 C4          -1.1700    -0.6350     0.1260 ca         1 52C       0.160000
      5 C5          -0.3560     0.4800    -0.0760 ca         1 52C      -0.140500
      6 C6          -0.9630     1.7230    -0.2610 ca         1 52C      -0.089000
      7 C7           1.1020     0.4010    -0.1010 cc         1 52C       0.451000
      8 N8           1.8650    -0.4720    -0.7160 nd         1 52C      -0.360000
      9 N9           3.1220    -0.0990    -0.4830 nd         1 52C      -0.043000
     10 N10          3.1650     0.9520     0.2380 nc         1 52C      -0.201800
     11 N11          1.9140     1.2820     0.4890 na         1 52C      -0.210700
     12 CL1         -0.4880    -2.1960     0.4070 cl         1 52C      -0.159000
     13 H1          -2.7900     2.8240    -0.4000 ha         1 52C       0.125000
     14 H2          -4.2120     0.8190    -0.0420 ha         1 52C       0.124000
     15 H6          -0.3460     2.5950    -0.4340 ha         1 52C       0.117000
     16 H3          -3.1680    -1.3850     0.3010 ha         1 52C       0.137000
     17 H11          1.6940     2.0840     1.0660 hn         1 52C       0.388000
@<TRIPOS>BOND
     1     1     2 ar  
     2     1     6 ar  
     3     1    13 1   
     4     2     3 ar  
     5     2    14 1   
     6     3     4 ar  
     7     3    16 1   
     8     4     5 ar  
     9     4    12 1   
    10     5     6 ar  
    11     5     7 1   
    12     6    15 1   
    13     7     8 2   
    14     7    11 1   
    15     8     9 1   
    16     9    10 2   
    17    10    11 1   
    18    11    17 1   
@<TRIPOS>SUBSTRUCTURE
     1 52C         1 TEMP              0 ****  ****    0 ROOT
