@<TRIPOS>MOLECULE
52C
   17    18     1     0     0
SMALL
No Charge or Current Charge


@<TRIPOS>ATOM
      1 C1          -2.3600     1.8650    -0.1500 ca         1 52C      -0.110000
      2 C2          -3.1740     0.7290    -0.0600 ca         1 52C      -0.080000
      3 C3          -2.5850    -0.5380     0.0530 ca         1 52C      -0.108000
      4 C4          -1.1860    -0.6810     0.0780 ca         1 52C       0.160000
      5 C5          -0.3470     0.4650     0.0010 ca         1 52C      -0.140500
      6 C6          -0.9620     1.7360    -0.1240 ca         1 52C      -0.089000
      7 C7           1.1250     0.3810    -0.0230 cc         1 52C       0.451000
      8 N8           1.8840    -0.6330    -0.3900 nd         1 52C      -0.360000
      9 N9           3.1900    -0.2150    -0.2830 nd         1 52C      -0.043000
     10 N10          3.2680     1.0220     0.1220 nc         1 52C      -0.201800
     11 N11          1.9770     1.4060     0.2800 na         1 52C      -0.210700
     12 Cl1         -0.5620    -2.3220     0.2680 cl         1 52C      -0.159000
     13 H1          -2.8130     2.8510    -0.2460 ha         1 52C       0.125000
     14 H2          -4.2580     0.8290    -0.0800 ha         1 52C       0.124000
     15 H6          -0.3600     2.6370    -0.2160 ha         1 52C       0.117000
     16 H3          -3.2170    -1.4200     0.1260 ha         1 52C       0.137000
     17 H11          1.7220     2.3330     0.5960 hn         1 52C       0.388000
@<TRIPOS>BOND
     1     1     2 ar  
     2     1     6 ar  
     3     1    13 1   
     4     2     3 ar  
     5     2    14 1   
     6     3     4 ar  
     7     3    16 1   
     8     4     5 ar  
     9     4    12 1   
    10     5     6 ar  
    11     5     7 1   
    12     6    15 1   
    13     7     8 2   
    14     7    11 1   
    15     8     9 1   
    16     9    10 2   
    17    10    11 1   
    18    11    17 1   
@<TRIPOS>SUBSTRUCTURE
     1 52C         1 TEMP              0 ****  ****    0 ROOT
