@<TRIPOS>MOLECULE
52D
   42    44     1     0     0
SMALL
No Charge or Current Charge


@<TRIPOS>ATOM
      1 O8           3.9260     2.2610    -0.7330 o          1 52D      -0.517100
      2 C7           3.4370     1.1870    -0.4020 c          1 52D       0.598300
      3 C9           4.3100    -0.0430    -0.2620 ca         1 52D      -0.123600
      4 C14          3.8200    -1.3470    -0.4980 ca         1 52D      -0.129500
      5 C13          4.6860    -2.4480    -0.3710 ca         1 52D       0.327400
      6 N12          5.9920    -2.3270    -0.0370 nb         1 52D      -0.655000
      7 C11          6.4720    -1.0790     0.1760 ca         1 52D       0.327400
      8 C10          5.6770     0.0760     0.0700 ca         1 52D      -0.129500
      9 C6           1.9560     1.0770    -0.1300 ca         1 52D      -0.222600
     10 C1           1.4580     0.2080     0.8650 ca         1 52D      -0.019500
     11 C5           1.0510     1.8850    -0.8490 ca         1 52D      -0.019500
     12 C4          -0.3280     1.8020    -0.5960 ca         1 52D      -0.196500
     13 C3          -0.8230     0.9260     0.3790 ca         1 52D       0.182100
     14 C2           0.0770     0.1280     1.1150 ca         1 52D      -0.196500
     15 O15         -2.1870     0.8900     0.5810 os         1 52D      -0.321100
     16 C16         -2.7970     0.0170     1.5530 c3         1 52D       0.164600
     17 C17         -4.3360     0.2130     1.5150 c3         1 52D       0.171800
     18 N23         -5.0020    -0.1350     0.2300 n3         1 52D      -0.708600
     19 C19         -4.8960    -1.5470    -0.1950 c5         1 52D       0.157800
     20 C22         -6.4570     0.1090     0.1930 c5         1 52D       0.157800
     21 C21         -6.8190    -0.4170    -1.2200 c5         1 52D      -0.078400
     22 C20         -5.7880    -1.5650    -1.4660 c5         1 52D      -0.078400
     23 H14          2.7880    -1.5190    -0.7920 ha         1 52D       0.133500
     24 H13          4.3240    -3.4600    -0.5490 h4         1 52D       0.021600
     25 H11          7.5260    -1.0040     0.4380 h4         1 52D       0.021600
     26 H10          6.1260     1.0490     0.2510 ha         1 52D       0.133500
     27 H1           2.1390    -0.4000     1.4590 ha         1 52D       0.126000
     28 H5           1.4140     2.5740    -1.6110 ha         1 52D       0.126000
     29 H4          -1.0190     2.4230    -1.1610 ha         1 52D       0.127500
     30 H2          -0.2710    -0.5520     1.8870 ha         1 52D       0.127500
     31 H16         -2.5540    -1.0320     1.3430 h1         1 52D       0.038200
     32 H16A        -2.4360     0.2580     2.5610 h1         1 52D       0.038200
     33 H17         -4.7700    -0.3890     2.3250 h1         1 52D       0.042700
     34 H17A        -4.5440     1.2630     1.7600 h1         1 52D       0.042700
     35 H19         -3.8630    -1.8480    -0.4180 h1         1 52D       0.034200
     36 H19A        -5.2920    -2.2240     0.5750 h1         1 52D       0.034200
     37 H22         -6.9780    -0.4610     0.9750 h1         1 52D       0.034200
     38 H22A        -6.7100     1.1710     0.3150 h1         1 52D       0.034200
     39 H21         -7.8570    -0.7650    -1.2710 hc         1 52D       0.048450
     40 H21A        -6.7070     0.3730    -1.9720 hc         1 52D       0.048450
     41 H20         -5.1940    -1.3670    -2.3650 hc         1 52D       0.048450
     42 H20A        -6.2710    -2.5390    -1.6050 hc         1 52D       0.048450
@<TRIPOS>BOND
     1     1     2 2   
     2     2     3 1   
     3     2     9 1   
     4     3     4 ar  
     5     3     8 ar  
     6     4     5 ar  
     7     4    23 1   
     8     5     6 ar  
     9     5    24 1   
    10     6     7 ar  
    11     7     8 ar  
    12     7    25 1   
    13     8    26 1   
    14     9    10 ar  
    15     9    11 ar  
    16    10    14 ar  
    17    10    27 1   
    18    11    12 ar  
    19    11    28 1   
    20    12    13 ar  
    21    12    29 1   
    22    13    14 ar  
    23    13    15 1   
    24    14    30 1   
    25    15    16 1   
    26    16    17 1   
    27    16    31 1   
    28    16    32 1   
    29    17    18 1   
    30    17    33 1   
    31    17    34 1   
    32    18    19 1   
    33    18    20 1   
    34    19    22 1   
    35    19    35 1   
    36    19    36 1   
    37    20    21 1   
    38    20    37 1   
    39    20    38 1   
    40    21    22 1   
    41    21    39 1   
    42    21    40 1   
    43    22    41 1   
    44    22    42 1   
@<TRIPOS>SUBSTRUCTURE
     1 52D         1 TEMP              0 ****  ****    0 ROOT
