@<TRIPOS>MOLECULE
52D
   42    44     1     0     0
SMALL
abcg2


@<TRIPOS>ATOM
      1 O8           3.7880     2.0860    -1.0740 o          1 52D      -0.517100
      2 C7           3.3280     1.0750    -0.5800 c          1 52D       0.598300
      3 C9           4.2580    -0.0510    -0.2510 ca         1 52D      -0.123600
      4 C14          3.9730    -1.3680    -0.5890 ca         1 52D      -0.129500
      5 C13          4.9250    -2.3420    -0.3210 ca         1 52D       0.327400
      6 N12          6.0890    -2.0880     0.2620 nb         1 52D      -0.655000
      7 C11          6.3540    -0.8270     0.5860 ca         1 52D       0.327400
      8 C10          5.4870     0.2240     0.3390 ca         1 52D      -0.129500
      9 C6           1.8910     0.9270    -0.2980 ca         1 52D      -0.222600
     10 C1           1.4010    -0.0060     0.6130 ca         1 52D      -0.019500
     11 C5           0.9800     1.7960    -0.9140 ca         1 52D      -0.019500
     12 C4          -0.3660     1.7160    -0.6460 ca         1 52D      -0.196500
     13 C3          -0.8480     0.7710     0.2710 ca         1 52D       0.182100
     14 C2           0.0490    -0.0880     0.9060 ca         1 52D      -0.196500
     15 O15         -2.1660     0.7710     0.4750 os         1 52D      -0.321100
     16 C16         -2.7280    -0.1420     1.4080 c3         1 52D       0.164600
     17 C17         -4.2170     0.1070     1.4770 c3         1 52D       0.171800
     18 N23         -4.8960    -0.1090     0.2250 n3         1 52D      -0.708600
     19 C19         -4.9300    -1.4900    -0.2250 c5         1 52D       0.157800
     20 C22         -6.2870     0.3050     0.2460 c5         1 52D       0.157800
     21 C21         -6.8400    -0.2410    -1.0670 c5         1 52D      -0.078400
     22 C20         -5.9800    -1.4930    -1.3420 c5         1 52D      -0.078400
     23 H14          3.0440    -1.6440    -1.0690 ha         1 52D       0.133500
     24 H13          4.7290    -3.3740    -0.5890 h4         1 52D       0.021600
     25 H11          7.3090    -0.6390     1.0640 h4         1 52D       0.021600
     26 H10          5.7640     1.2320     0.6150 ha         1 52D       0.133500
     27 H1           2.0750    -0.6730     1.1340 ha         1 52D       0.126000
     28 H5           1.3340     2.5350    -1.6210 ha         1 52D       0.126000
     29 H4          -1.0630     2.3830    -1.1370 ha         1 52D       0.127500
     30 H2          -0.2840    -0.8180     1.6300 ha         1 52D       0.127500
     31 H16         -2.5110    -1.1720     1.1070 h1         1 52D       0.038200
     32 H16A        -2.2950     0.0110     2.4020 h1         1 52D       0.038200
     33 H17         -4.6140    -0.5350     2.2830 h1         1 52D       0.042700
     34 H17A        -4.3870     1.1390     1.7960 h1         1 52D       0.042700
     35 H19         -3.9510    -1.8270    -0.5690 h1         1 52D       0.034200
     36 H19A        -5.2390    -2.1680     0.5900 h1         1 52D       0.034200
     37 H22         -6.8300    -0.1350     1.1010 h1         1 52D       0.034200
     38 H22A        -6.3710     1.3910     0.3330 h1         1 52D       0.034200
     39 H21         -7.9040    -0.4650    -0.9960 hc         1 52D       0.048450
     40 H21A        -6.7160     0.4920    -1.8650 hc         1 52D       0.048450
     41 H20         -5.5090    -1.4340    -2.3230 hc         1 52D       0.048450
     42 H20A        -6.5660    -2.4110    -1.3230 hc         1 52D       0.048450
@<TRIPOS>BOND
     1     1     2 2   
     2     2     3 1   
     3     2     9 1   
     4     3     4 ar  
     5     3     8 ar  
     6     4     5 ar  
     7     4    23 1   
     8     5     6 ar  
     9     5    24 1   
    10     6     7 ar  
    11     7     8 ar  
    12     7    25 1   
    13     8    26 1   
    14     9    10 ar  
    15     9    11 ar  
    16    10    14 ar  
    17    10    27 1   
    18    11    12 ar  
    19    11    28 1   
    20    12    13 ar  
    21    12    29 1   
    22    13    14 ar  
    23    13    15 1   
    24    14    30 1   
    25    15    16 1   
    26    16    17 1   
    27    16    31 1   
    28    16    32 1   
    29    17    18 1   
    30    17    33 1   
    31    17    34 1   
    32    18    19 1   
    33    18    20 1   
    34    19    22 1   
    35    19    35 1   
    36    19    36 1   
    37    20    21 1   
    38    20    37 1   
    39    20    38 1   
    40    21    22 1   
    41    21    39 1   
    42    21    40 1   
    43    22    41 1   
    44    22    42 1   
@<TRIPOS>SUBSTRUCTURE
     1 52D         1 TEMP              0 ****  ****    0 ROOT
