@<TRIPOS>MOLECULE
52E
   61    63     1     0     0
SMALL
bcc


@<TRIPOS>ATOM
      1 N1          -3.0450     0.6990     1.4170 ns         1 52E      -0.589900
      2 C6          -5.6070     1.2380    -0.1770 ca         1 52E      -0.018600
      3 N3           3.7110    -0.1400     0.1580 ns         1 52E      -0.554400
      4 C5          -6.4080     2.0040    -1.0080 ca         1 52E       0.137900
      5 C15         -0.3360    -2.6480    -0.2840 c3         1 52E      -0.125400
      6 C16         -1.6490    -3.2460    -0.7870 c3         1 52E       0.144100
      7 C17         -1.3620    -4.2250    -1.9160 c3         1 52E       0.106400
      8 O30         -2.5660    -4.8270    -2.3270 oh         1 52E      -0.577800
      9 O31         -2.6020    -2.2790    -1.1650 oh         1 52E      -0.565800
     10 N2          -1.2250    -0.6080     0.8670 n          1 52E      -0.485800
     11 N4           5.6020     0.5900     1.3350 nb         1 52E      -0.665000
     12 C7          -6.8370     3.2640    -0.6440 ca         1 52E      -0.159000
     13 C8          -6.4500     3.7640     0.5890 ca         1 52E      -0.105000
     14 C9          -5.6450     3.0070     1.4290 ca         1 52E      -0.132000
     15 C10         -5.2130     1.7360     1.0640 ca         1 52E      -0.081300
     16 C11         -4.3430     0.9360     1.9950 c3         1 52E       0.161300
     17 C12         -2.3940    -0.4860     1.5620 c          1 52E       0.805100
     18 C13         -0.8560     0.3700    -0.1350 c3         1 52E       0.090300
     19 C14         -0.4610    -1.8360     1.0070 c3         1 52E       0.125700
     20 C18          0.8840    -1.6090     1.6800 c3         1 52E       0.147400
     21 C20          5.0610     0.2060     0.1640 ca         1 52E       0.554200
     22 C21          5.7590     0.1910    -1.0200 ca         1 52E      -0.290300
     23 C22          7.1070     0.5910    -1.0250 ca         1 52E       0.018000
     24 C23          7.6880     0.9720     0.2080 ca         1 52E      -0.188300
     25 C24          6.8590     0.9410     1.3490 ca         1 52E       0.463200
     26 C25          7.9070     0.6140    -2.1920 ca         1 52E      -0.133000
     27 C26          9.2170     1.0020    -2.1150 ca         1 52E      -0.100000
     28 C27          9.7940     1.3820    -0.8820 ca         1 52E      -0.138000
     29 C28          9.0430     1.3690     0.2600 ca         1 52E      -0.088000
     30 O29         -2.8360    -1.3720     2.2910 o          1 52E      -0.646100
     31 O32          1.7640    -0.9380     0.7780 os         1 52E      -0.455900
     32 O33          3.4570    -1.0520     2.2520 o          1 52E      -0.531000
     33 F35         -6.7730     1.5030    -2.1920 f          1 52E      -0.127900
     34 H1          -2.6070     1.4730     0.9490 hn         1 52E       0.314500
     35 H2           3.2500    -0.1060    -0.7390 hn         1 52E       0.330500
     36 H3           0.3530    -3.4730    -0.0800 hc         1 52E       0.049700
     37 H4           0.1340    -2.0670    -1.0840 hc         1 52E       0.049700
     38 H5          -2.1140    -3.8010     0.0360 h1         1 52E       0.094700
     39 H6          -0.8760    -3.6840    -2.7430 h1         1 52E       0.015200
     40 H7          -0.6390    -4.9690    -1.5590 h1         1 52E       0.015200
     41 H8          -2.3610    -5.4640    -3.0170 ho         1 52E       0.402000
     42 H9          -2.2270    -1.7330    -1.8630 ho         1 52E       0.391000
     43 H10         -7.4630     3.8360    -1.3160 ha         1 52E       0.153000
     44 H11         -6.7750     4.7500     0.8920 ha         1 52E       0.140000
     45 H12         -5.3430     3.4060     2.3880 ha         1 52E       0.139000
     46 H13         -4.8070    -0.0260     2.2090 h1         1 52E       0.068700
     47 H14         -4.2670     1.4690     2.9470 h1         1 52E       0.068700
     48 H15         -1.6640     0.5370    -0.8520 h1         1 52E       0.037367
     49 H16         -0.5760     1.3300     0.3060 h1         1 52E       0.037367
     50 H17          0.0060     0.0240    -0.6940 h1         1 52E       0.037367
     51 H18         -1.0120    -2.4500     1.7190 h1         1 52E       0.104700
     52 H19          0.7490    -1.0140     2.5870 h1         1 52E       0.063200
     53 H20          1.3080    -2.5740     1.9670 h1         1 52E       0.063200
     54 H21          5.2840    -0.1300    -1.9400 ha         1 52E       0.140000
     55 H22          7.2710     1.2390     2.3080 h4         1 52E       0.026100
     56 H23          7.4730     0.3240    -3.1400 ha         1 52E       0.135000
     57 H24          9.8250     1.0210    -3.0110 ha         1 52E       0.133000
     58 H25         10.8330     1.6840    -0.8510 ha         1 52E       0.136000
     59 H26          9.4740     1.6590     1.2100 ha         1 52E       0.136000
     60 CL1         -5.1260    -0.3290    -0.7050 cl         1 52E      -0.045400
     61 C19          3.0220    -0.7390     1.1720 c          1 52E       0.766100
@<TRIPOS>BOND
     1     1    16 1   
     2     1    17 1   
     3     1    34 1   
     4     2     4 ar  
     5     2    15 ar  
     6     2    60 1   
     7     3    21 1   
     8     3    35 1   
     9     3    61 1   
    10     4    12 ar  
    11     4    33 1   
    12     5     6 1   
    13     5    19 1   
    14     5    36 1   
    15     5    37 1   
    16     6     7 1   
    17     6     9 1   
    18     6    38 1   
    19     7     8 1   
    20     7    39 1   
    21     7    40 1   
    22     8    41 1   
    23     9    42 1   
    24    10    17 1   
    25    10    18 1   
    26    10    19 1   
    27    11    21 ar  
    28    11    25 ar  
    29    12    13 ar  
    30    12    43 1   
    31    13    14 ar  
    32    13    44 1   
    33    14    15 ar  
    34    14    45 1   
    35    15    16 1   
    36    16    46 1   
    37    16    47 1   
    38    17    30 2   
    39    18    48 1   
    40    18    49 1   
    41    18    50 1   
    42    19    20 1   
    43    19    51 1   
    44    20    31 1   
    45    20    52 1   
    46    20    53 1   
    47    21    22 ar  
    48    22    23 ar  
    49    22    54 1   
    50    23    24 ar  
    51    23    26 ar  
    52    24    25 ar  
    53    24    29 ar  
    54    25    55 1   
    55    26    27 ar  
    56    26    56 1   
    57    27    28 ar  
    58    27    57 1   
    59    28    29 ar  
    60    28    58 1   
    61    29    59 1   
    62    31    61 1   
    63    32    61 2   
@<TRIPOS>SUBSTRUCTURE
     1 52E         1 TEMP              0 ****  ****    0 ROOT
