@<TRIPOS>MOLECULE
52E
   61    63     1     0     0
SMALL
No Charge or Current Charge


@<TRIPOS>ATOM
      1 N1          -3.1400     0.4120     1.0710 ns         1 52E      -0.522900
      2 C6          -5.7080     1.9290    -0.2040 ca         1 52E       0.073000
      3 N3           3.6580    -0.3790     0.2960 ns         1 52E      -0.320900
      4 C5          -6.2250     3.0580    -0.8710 ca         1 52E       0.173000
      5 C15         -0.3230    -3.2390    -0.2230 c3         1 52E      -0.125400
      6 C16         -1.6170    -3.8650    -0.8080 c3         1 52E       0.167300
      7 C17         -1.3140    -5.0600    -1.7540 c3         1 52E       0.129600
      8 O30         -2.5330    -5.5570    -2.3330 oh         1 52E      -0.640000
      9 O31         -2.3560    -2.8900    -1.5550 oh         1 52E      -0.628000
     10 N2          -1.3300    -1.0460     0.6780 n          1 52E      -0.418800
     11 N4           5.4780     0.5250     1.4570 nb         1 52E      -0.665000
     12 C7          -5.9770     4.3500    -0.3810 ca         1 52E      -0.141000
     13 C8          -5.2060     4.5210     0.7800 ca         1 52E      -0.087000
     14 C9          -4.6880     3.4000     1.4500 ca         1 52E      -0.114000
     15 C10         -4.9340     2.0970     0.9690 ca         1 52E      -0.081300
     16 C11         -4.3550     0.9020     1.7160 c3         1 52E       0.161300
     17 C12         -2.4740    -0.7270     1.4400 c          1 52E       0.671100
     18 C13         -0.8720    -0.1580    -0.4230 c3         1 52E       0.090300
     19 C14         -0.5350    -2.2770     0.9870 c3         1 52E       0.125700
     20 C18          0.7920    -1.9510     1.7300 c3         1 52E       0.170600
     21 C20          4.9420     0.1840     0.2680 ca         1 52E       0.488900
     22 C21          5.5790     0.4230    -0.9590 ca         1 52E      -0.207000
     23 C22          6.8490     1.0210    -0.9630 ca         1 52E       0.018000
     24 C23          7.4250     1.3660     0.2730 ca         1 52E      -0.123000
     25 C24          6.7030     1.1010     1.4540 ca         1 52E       0.397900
     26 C25          7.5380     1.2760    -2.1610 ca         1 52E      -0.115000
     27 C26          8.8090     1.8770    -2.1230 ca         1 52E      -0.082000
     28 C27          9.3870     2.2220    -0.8880 ca         1 52E      -0.120000
     29 C28          8.6980     1.9680     0.3120 ca         1 52E      -0.070000
     30 O29         -2.8550    -1.4090     2.3790 o          1 52E      -0.646100
     31 O32          1.7230    -1.3220     0.8250 os         1 52E      -0.479100
     32 O33          3.3100    -1.1210     2.4690 o          1 52E      -0.482000
     33 F35         -6.9660     2.9090    -1.9930 f          1 52E      -0.163000
     34 H1          -2.7720     0.9240     0.2820 hn         1 52E       0.314500
     35 H2           3.1820    -0.3660    -0.5940 hn         1 52E       0.164000
     36 H3           0.3170    -4.0610     0.1210 hc         1 52E       0.049700
     37 H4           0.2390    -2.7410    -1.0220 hc         1 52E       0.049700
     38 H5          -2.2250    -4.2500     0.0240 h1         1 52E       0.094700
     39 H6          -0.6240    -4.7350    -2.5440 h1         1 52E       0.015200
     40 H7          -0.8170    -5.8540    -1.1810 h1         1 52E       0.015200
     41 H8          -2.2940    -6.3400    -2.8780 ho         1 52E       0.441000
     42 H9          -2.9150    -3.4210    -2.1650 ho         1 52E       0.430000
     43 H10         -6.3800     5.2140    -0.9030 ha         1 52E       0.135000
     44 H11         -5.0100     5.5220     1.1620 ha         1 52E       0.122000
     45 H12         -4.0900     3.5450     2.3480 ha         1 52E       0.121000
     46 H13         -5.0940     0.0920     1.7640 h1         1 52E       0.068700
     47 H14         -4.1140     1.1890     2.7490 h1         1 52E       0.068700
     48 H15         -1.6590    -0.0750    -1.1840 h1         1 52E       0.037367
     49 H16         -0.6460     0.8390    -0.0240 h1         1 52E       0.037367
     50 H17          0.0310    -0.5500    -0.9030 h1         1 52E       0.037367
     51 H18         -1.1080    -2.8700     1.7120 h1         1 52E       0.104700
     52 H19          0.5710    -1.2940     2.5820 h1         1 52E       0.063200
     53 H20          1.2160    -2.8830     2.1280 h1         1 52E       0.063200
     54 H21          5.0930     0.1440    -1.8890 ha         1 52E       0.122000
     55 H22          7.1150     1.3600     2.4290 h4         1 52E       0.026100
     56 H23          7.0930     1.0100    -3.1180 ha         1 52E       0.117000
     57 H24          9.3450     2.0750    -3.0480 ha         1 52E       0.115000
     58 H25         10.3700     2.6870    -0.8600 ha         1 52E       0.118000
     59 H26          9.1510     2.2400     1.2640 ha         1 52E       0.118000
     60 Cl1         -6.0310     0.3150    -0.8520 cl         1 52E      -0.137000
     61 C19          2.9410    -0.9510     1.3160 c          1 52E       0.650100
@<TRIPOS>BOND
     1     1    16 1   
     2     1    17 1   
     3     1    34 1   
     4     2     4 ar  
     5     2    15 ar  
     6     2    60 1   
     7     3    21 1   
     8     3    35 1   
     9     3    61 1   
    10     4    12 ar  
    11     4    33 1   
    12     5     6 1   
    13     5    19 1   
    14     5    36 1   
    15     5    37 1   
    16     6     7 1   
    17     6     9 1   
    18     6    38 1   
    19     7     8 1   
    20     7    39 1   
    21     7    40 1   
    22     8    41 1   
    23     9    42 1   
    24    10    17 1   
    25    10    18 1   
    26    10    19 1   
    27    11    21 ar  
    28    11    25 ar  
    29    12    13 ar  
    30    12    43 1   
    31    13    14 ar  
    32    13    44 1   
    33    14    15 ar  
    34    14    45 1   
    35    15    16 1   
    36    16    46 1   
    37    16    47 1   
    38    17    30 2   
    39    18    48 1   
    40    18    49 1   
    41    18    50 1   
    42    19    20 1   
    43    19    51 1   
    44    20    31 1   
    45    20    52 1   
    46    20    53 1   
    47    21    22 ar  
    48    22    23 ar  
    49    22    54 1   
    50    23    24 ar  
    51    23    26 ar  
    52    24    25 ar  
    53    24    29 ar  
    54    25    55 1   
    55    26    27 ar  
    56    26    56 1   
    57    27    28 ar  
    58    27    57 1   
    59    28    29 ar  
    60    28    58 1   
    61    29    59 1   
    62    31    61 1   
    63    32    61 2   
@<TRIPOS>SUBSTRUCTURE
     1 52E         1 TEMP              0 ****  ****    0 ROOT
