@<TRIPOS>MOLECULE
52F
   25    26     1     0     0
SMALL
abcg2


@<TRIPOS>ATOM
      1 C10         -3.6200     2.0640    -0.0600 ca         1 52F      -0.153000
      2 C13         -2.4260    -0.4440    -0.0130 ca         1 52F       0.044600
      3 C15         -0.4310    -1.8040    -0.0140 c          1 52F       0.418700
      4 O01          4.6850     1.6750     0.2000 o          1 52F      -0.740000
      5 C02          4.0750     0.5950     0.0570 c          1 52F       0.716000
      6 O03          4.5910    -0.5320    -0.0750 o          1 52F      -0.740000
      7 C04          2.5390     0.6970     0.0410 c3         1 52F      -0.204400
      8 C06          0.3240    -0.5230    -0.0430 cc         1 52F       0.417300
      9 N07         -0.2570     0.6200    -0.0590 nd         1 52F      -0.539100
     10 C08         -1.6290     0.7060    -0.0500 ca         1 52F       0.085400
     11 C09         -2.2450     1.9610    -0.0740 ca         1 52F      -0.040000
     12 C11         -4.4030     0.9060    -0.0190 ca         1 52F      -0.084000
     13 C12         -3.8170    -0.3440     0.0040 ca         1 52F      -0.164000
     14 N14         -1.7820    -1.6560     0.0050 ns         1 52F      -0.379100
     15 O16          0.1070    -2.9000    -0.0050 o          1 52F      -0.532000
     16 H1          -4.0930     3.0360    -0.0790 ha         1 52F       0.111000
     17 H3           2.2190     1.2340     0.9380 hc         1 52F       0.030200
     18 H4           2.2490     1.3430    -0.7930 hc         1 52F       0.030200
     19 H5           2.1150    -1.1690    -0.9570 hc         1 52F       0.075700
     20 H6           2.1170    -1.2890     0.7690 hc         1 52F       0.075700
     21 H7          -1.6170     2.8420    -0.1040 ha         1 52F       0.136000
     22 H8          -5.4810     0.9860    -0.0060 ha         1 52F       0.103000
     23 H9          -4.4260    -1.2390     0.0370 ha         1 52F       0.109000
     24 H10         -2.3400    -2.5000     0.0350 hn         1 52F       0.314500
     25 C05          1.8150    -0.6320    -0.0510 c3         1 52F      -0.095700
@<TRIPOS>BOND
     1     1    11 ar  
     2     1    12 ar  
     3     1    16 1   
     4     2    10 ar  
     5     2    13 ar  
     6     2    14 1   
     7     3     8 1   
     8     3    14 1   
     9     3    15 2   
    10     4     5 1   
    11     5     6 1   
    12     5     7 1   
    13     7    17 1   
    14     7    18 1   
    15     7    25 1   
    16     8     9 2   
    17     8    25 1   
    18     9    10 1   
    19    10    11 ar  
    20    11    21 1   
    21    12    13 ar  
    22    12    22 1   
    23    13    23 1   
    24    14    24 1   
    25    19    25 1   
    26    20    25 1   
@<TRIPOS>SUBSTRUCTURE
     1 52F         1 TEMP              0 ****  ****    0 ROOT
