@<TRIPOS>MOLECULE
52F
   25    26     1     0     0
SMALL
No Charge or Current Charge


@<TRIPOS>ATOM
      1 C10         -3.7540     2.0380    -0.1970 ca         1 52F      -0.153000
      2 C13         -2.4330    -0.4170     0.0510 ca         1 52F       0.044600
      3 C15         -0.3970    -1.7550     0.1820 c          1 52F       0.418700
      4 O01          4.7220     0.4300     1.0240 o          1 52F      -0.740000
      5 C02          4.1620     0.4650    -0.0600 c          1 52F       0.716000
      6 O03          4.7160     0.2100    -1.1180 o          1 52F      -0.740000
      7 C04          2.6550     0.7670    -0.0860 c3         1 52F      -0.204400
      8 C06          0.3210    -0.4280     0.0440 cc         1 52F       0.417300
      9 N07         -0.2510     0.7910    -0.0800 nd         1 52F      -0.539100
     10 C08         -1.6650     0.7660    -0.0730 ca         1 52F       0.085400
     11 C09         -2.3470     1.9920    -0.1970 ca         1 52F      -0.040000
     12 C11         -4.5000     0.8550    -0.0730 ca         1 52F      -0.084000
     13 C12         -3.8370    -0.3760     0.0520 ca         1 52F      -0.164000
     14 N14         -1.7580    -1.6310     0.1740 ns         1 52F      -0.379100
     15 O16          0.1290    -2.8580     0.2940 o          1 52F      -0.532000
     16 H1          -4.2650     2.9940    -0.2940 ha         1 52F       0.111000
     17 H3           2.3790     1.3880     0.7750 hc         1 52F       0.030200
     18 H4           2.3730     1.2000    -1.0550 hc         1 52F       0.030200
     19 H5           2.1340    -1.2290    -0.7600 hc         1 52F       0.075700
     20 H6           2.1400    -1.0500     0.9830 hc         1 52F       0.075700
     21 H7          -1.7810     2.9150    -0.2930 ha         1 52F       0.136000
     22 H8          -5.5880     0.8920    -0.0730 ha         1 52F       0.103000
     23 H9          -4.4140    -1.2940     0.1480 ha         1 52F       0.109000
     24 H10         -2.3070    -2.4780     0.2630 hn         1 52F       0.314500
     25 C05          1.8380    -0.5540     0.0520 c3         1 52F      -0.095700
@<TRIPOS>BOND
     1     1    11 ar  
     2     1    12 ar  
     3     1    16 1   
     4     2    10 ar  
     5     2    13 ar  
     6     2    14 1   
     7     3     8 1   
     8     3    14 1   
     9     3    15 2   
    10     4     5 1   
    11     5     6 1   
    12     5     7 1   
    13     7    17 1   
    14     7    18 1   
    15     7    25 1   
    16     8     9 2   
    17     8    25 1   
    18     9    10 1   
    19    10    11 ar  
    20    11    21 1   
    21    12    13 ar  
    22    12    22 1   
    23    13    23 1   
    24    14    24 1   
    25    19    25 1   
    26    20    25 1   
@<TRIPOS>SUBSTRUCTURE
     1 52F         1 TEMP              0 ****  ****    0 ROOT
