@<TRIPOS>MOLECULE
52G
  182   186     1     0     0
SMALL
bcc


@<TRIPOS>ATOM
      1 O1           8.1130   -18.2580    13.3900 o          1 52G      -0.586100
      2 C1           6.9540   -17.9740    13.1510 c          1 52G       0.691100
      3 C2           6.5830   -16.6470    12.4750 c3         1 52G       0.090500
      4 C3           5.1230   -16.2090    12.6050 c3         1 52G       0.143800
      5 O4           1.2070   -16.1050    14.8810 o          1 52G      -0.614100
      6 C5           2.2010   -15.8730    12.7330 c3         1 52G      -0.165400
      7 C6           2.9040   -16.6060    11.5960 c3         1 52G       0.145200
      8 C7           3.0180   -15.7580    10.3330 ca         1 52G       0.677300
      9 C8           2.4870   -13.9200     9.1160 ca         1 52G       0.703200
     10 C9           3.1620   -14.4410     7.9720 ca         1 52G      -0.315900
     11 C10          3.7950   -15.6480     8.1940 ca         1 52G       0.430800
     12 O12          4.8330   -15.9440     6.0250 o          1 52G      -0.649100
     13 NQ           5.1100   -11.7100     9.5760 nt         1 52G      -0.667000
     14 C70          5.8710   -12.7930     9.3640 c          1 52G       0.763100
     15 O70          5.9440   -13.7480    10.1120 o          1 52G      -0.618000
     16 O68          6.5480   -12.6840     8.2160 os         1 52G      -0.410900
     17 C68          7.3570   -13.7720     7.7930 c6         1 52G       0.146100
     18 C69          8.6880   -13.8160     8.5400 c6         1 52G       0.105100
     19 O69          9.2870   -12.5530     8.4230 oh         1 52G      -0.574800
     20 C67          7.5770   -13.5970     6.2900 c6         1 52G       0.128100
     21 O67          6.3740   -13.5560     5.5740 oh         1 52G      -0.600800
     22 C65          8.5020   -14.7200     5.8010 c6         1 52G       0.113100
     23 C66          8.8720   -14.5680     4.3420 c3         1 52G       0.146400
     24 O66          9.6240   -15.6940     3.9550 oh         1 52G      -0.592800
     25 O64          9.7130   -14.7220     6.5400 os         1 52G      -0.404600
     26 C64          9.5760   -14.8980     7.9150 c6         1 52G       0.297900
     27 O56          9.0130   -16.1340     8.2390 os         1 52G      -0.410600
     28 C57          9.8110   -17.2550     7.9340 c6         1 52G       0.138100
     29 C58         10.6190   -17.7330     9.1360 c6         1 52G       0.134100
     30 O58          9.7700   -17.9710    10.2310 oh         1 52G      -0.568800
     31 C59         11.3750   -19.0090     8.7420 c6         1 52G       0.088100
     32 O59         12.3660   -18.6280     7.8170 oh         1 52G      -0.591800
     33 C60         10.3930   -20.0360     8.1790 c6         1 52G       0.117100
     34 C61         11.0640   -21.3060     7.6980 c3         1 52G      -0.093100
     35 O62          9.6840   -19.4940     7.0670 os         1 52G      -0.422600
     36 C63          8.9350   -18.3420     7.3100 c6         1 52G       0.334900
     37 OH1          7.8250   -18.5850     8.1200 os         1 52G      -0.381600
     38 C14          6.7990   -19.3500     7.5060 c3         1 52G       0.132800
     39 C27          6.1190   -20.1460     8.5690 cc         1 52G       0.286600
     40 NJ           5.2600   -19.5850     9.4770 nc         1 52G      -0.688000
     41 C29          4.9270   -20.5440    10.3010 cd         1 52G       0.387400
     42 NI           5.5260   -21.7000     9.9660 na         1 52G      -0.284900
     43 C28          6.2910   -21.4710     8.8630 cd         1 52G      -0.227600
     44 C13          5.8470   -18.4270     6.7150 c3         1 52G       0.013700
     45 NH           5.0980   -17.5530     7.5760 ns         1 52G      -0.531900
     46 C12          4.6220   -16.3770     7.1560 c          1 52G       0.567600
     47 NG           3.7130   -16.3020     9.3590 nb         1 52G      -0.755000
     48 CA           3.1020   -13.6560     6.6990 c3         1 52G      -0.047800
     49 NF           1.8620   -12.7360     9.0690 nv         1 52G      -0.967500
     50 NE           2.4140   -14.5870    10.2670 nb         1 52G      -0.782000
     51 ND           2.2980   -17.9070    14.0890 nt         1 52G      -0.677000
     52 NC           4.2040   -17.1550    11.9740 n7         1 52G      -0.845200
     53 NB           6.9160   -16.7590    11.0660 n8         1 52G      -0.905800
     54 NA           5.9000   -18.7650    13.4370 ns         1 52G      -0.452300
     55 C30          4.9780   -19.2960     5.8030 c          1 52G       0.658100
     56 O30          5.4980   -19.8510     4.8400 o          1 52G      -0.624100
     57 NK           3.6940   -19.4320     6.1400 ns         1 52G      -0.562900
     58 C31          2.7410   -20.2410     5.4070 c3         1 52G       0.101700
     59 CB           1.8660   -19.3730     4.5000 c3         1 52G      -0.128400
     60 C96          2.6590   -18.5560     3.4840 c3         1 52G       0.140400
     61 O97          3.4540   -19.3410     2.6250 oh         1 52G      -0.602800
     62 C33          1.9110   -21.0600     6.4070 c3         1 52G       0.150100
     63 OH2          1.0680   -21.9040     5.6600 oh         1 52G      -0.583800
     64 C34          2.7930   -21.8720     7.3790 c3         1 52G      -0.160700
     65 CC           3.7790   -22.7890     6.6690 c3         1 52G      -0.074100
     66 C36          1.9330   -22.6670     8.3540 c          1 52G       0.665100
     67 O36          2.0100   -23.8820     8.4630 o          1 52G      -0.620100
     68 NL           1.1040   -21.9400     9.1320 ns         1 52G      -0.573900
     69 C37          0.3900   -22.5240    10.2440 c3         1 52G       0.002700
     70 C38          0.1100   -21.4590    11.3360 c3         1 52G       0.168800
     71 CD           1.4140   -20.8280    11.8020 c3         1 52G      -0.110600
     72 C98         -0.5630   -22.1330    12.5340 c3         1 52G      -0.110600
     73 OH3         -0.6780   -20.4110    10.8130 oh         1 52G      -0.608800
     74 C40         -0.9180   -23.1640     9.7610 c          1 52G       0.657100
     75 O40         -1.9410   -22.4990     9.6150 o          1 52G      -0.628100
     76 NM          -0.8800   -24.4820     9.5520 ns         1 52G      -0.555900
     77 C41         -2.0700   -25.2680     9.2980 c3         1 52G       0.106000
     78 C42         -1.9040   -26.7000     9.8110 c3         1 52G      -0.134700
     79 C43         -1.2640   -26.7350    11.1610 c2         1 52G       0.487200
     80 NN          -0.2040   -27.3830    11.4010 n2         1 52G      -0.604900
     81 S43         -1.9340   -25.7480    12.4600 ss         1 52G      -0.288300
     82 C44         -0.6730   -26.3840    13.6000 c5         1 52G      -0.015300
     83 C45          0.3700   -27.0640    12.6950 c5         1 52G       0.084200
     84 C46          1.5680   -26.1990    12.4010 cc         1 52G       0.397700
     85 NO           2.0260   -25.2350    13.1220 nd         1 52G      -0.647000
     86 S46          2.4670   -26.4900    10.9490 ss         1 52G      -0.029300
     87 C47          3.5370   -25.2380    11.3810 cc         1 52G      -0.153400
     88 C48          3.1370   -24.6740    12.5520 cd         1 52G       0.258800
     89 C49          3.7780   -23.4750    13.1390 c          1 52G       0.607600
     90 O49          4.7120   -22.9150    12.5690 o          1 52G      -0.659100
     91 NP           3.2540   -23.0400    14.2890 ns         1 52G      -0.545900
     92 C50          3.5780   -21.7380    14.8240 c3         1 52G       0.102000
     93 C51          4.9810   -21.6170    15.4560 c3         1 52G      -0.141700
     94 C52          5.4440   -20.2020    15.2490 c2         1 52G       0.588200
     95 N99          5.2410   -19.3100    16.1280 n2         1 52G      -0.805100
     96 N53          6.0130   -20.0080    13.9990 nu         1 52G      -0.620200
     97 H1           7.1750   -15.8870    13.0050 h1         1 52G       0.044700
     98 H2           4.8740   -16.1050    13.6650 h1         1 52G       0.052700
     99 H3           5.0540   -15.2060    12.1670 h1         1 52G       0.052700
    100 H4           1.2550   -15.4820    12.3590 hc         1 52G       0.086700
    101 H5           2.7690   -14.9890    13.0340 hc         1 52G       0.086700
    102 H6           2.2830   -17.4630    11.3070 h1         1 52G       0.074700
    103 H7           4.4870   -11.6950    10.3640 hn         1 52G       0.328000
    104 H8           5.0060   -10.9890     8.8820 hn         1 52G       0.328000
    105 H9           6.8340   -14.7180     7.9710 h1         1 52G       0.082700
    106 H11         10.0460   -12.5140     9.0140 ho         1 52G       0.407000
    107 H12          8.0700   -12.6370     6.1070 h1         1 52G       0.102700
    108 H13          5.8720   -14.3740     5.7230 ho         1 52G       0.435000
    109 H14          7.9760   -15.6800     5.9200 h1         1 52G       0.055700
    110 H15          7.9490   -14.4770     3.7610 h1         1 52G       0.038200
    111 H16          9.4340   -13.6330     4.2080 h1         1 52G       0.038200
    112 H17          9.7940   -15.6300     3.0110 ho         1 52G       0.406000
    113 H18         10.5960   -14.8120     8.3160 h2         1 52G       0.069700
    114 H19         10.5410   -17.0050     7.1560 h1         1 52G       0.094700
    115 H20         11.3580   -16.9540     9.3800 h1         1 52G       0.042700
    116 H21         10.3130   -18.1050    11.0140 ho         1 52G       0.409000
    117 H22         11.8270   -19.4390     9.6490 h1         1 52G       0.036700
    118 H23         12.9660   -19.3660     7.6730 ho         1 52G       0.411000
    119 H24          9.6950   -20.2960     8.9840 h1         1 52G       0.067700
    120 H25         10.3220   -22.0370     7.3780 hc         1 52G       0.044033
    121 H26         11.7360   -21.1210     6.8590 hc         1 52G       0.044033
    122 H27         11.6430   -21.7530     8.5080 hc         1 52G       0.044033
    123 H28          8.6190   -18.0000     6.3140 h2         1 52G       0.081700
    124 H29          7.2330   -20.0530     6.7870 h1         1 52G       0.078700
    125 H31          4.2660   -20.4490    11.1460 h5         1 52G       0.053100
    126 H32          5.4280   -22.5650    10.4790 hn         1 52G       0.326700
    127 H33          6.8810   -22.2390     8.3910 h4         1 52G       0.182000
    128 H34          6.4530   -17.8230     6.0340 h1         1 52G       0.100700
    129 H35          4.8850   -17.8630     8.5250 hn         1 52G       0.395500
    130 H36          3.7540   -12.7800     6.7420 hc         1 52G       0.057367
    131 H37          3.3860   -14.2400     5.8330 hc         1 52G       0.057367
    132 H38          2.0870   -13.2930     6.5300 hc         1 52G       0.057367
    133 H39          1.4720   -12.3660     9.9200 hn         1 52G       0.441300
    134 H40          2.0180   -12.0820     8.3220 hn         1 52G       0.441300
    135 H41          2.1320   -18.4450    14.9250 hn         1 52G       0.316000
    136 H42          2.9220   -18.2890    13.3980 hn         1 52G       0.316000
    137 H43          4.6450   -17.5080    11.1280 hn         1 52G       0.423800
    138 H45          6.8000   -15.8560    10.6230 hn         1 52G       0.379300
    139 H46          7.8810   -17.0330    10.9290 hn         1 52G       0.379300
    140 H48          8.7290   -21.4380    13.7080 DU         1 52G       0.000000
    141 H49          4.9880   -18.4800    13.0770 hn         1 52G       0.342500
    142 H50          3.3450   -18.8980     6.9230 hn         1 52G       0.322500
    143 H51          3.3050   -20.9380     4.7850 h1         1 52G       0.100700
    144 H52          1.1590   -20.0190     3.9760 hc         1 52G       0.056200
    145 H53          1.2760   -18.6840     5.1120 hc         1 52G       0.056200
    146 H54          1.9500   -18.0130     2.8540 h1         1 52G       0.042200
    147 H55          3.2560   -17.7930     4.0000 h1         1 52G       0.042200
    148 H56          4.2160   -19.6540     3.1290 ho         1 52G       0.424000
    149 H57          1.3160   -20.3370     6.9840 h1         1 52G       0.024700
    150 H58          0.2480   -22.0380     6.1450 ho         1 52G       0.413000
    151 H59          3.3560   -21.1550     7.9840 hc         1 52G       0.076700
    152 H60          4.3380   -23.3880     7.3860 hc         1 52G       0.049700
    153 H61          3.2780   -23.4710     5.9820 hc         1 52G       0.049700
    154 H62          4.5110   -22.2150     6.1040 hc         1 52G       0.049700
    155 H63          1.0450   -20.9410     9.0130 hn         1 52G       0.335500
    156 H64          1.0240   -23.2950    10.6920 h1         1 52G       0.074700
    157 H65          1.2180   -20.1320    12.6180 hc         1 52G       0.047367
    158 H66          2.0990   -21.5900    12.1670 hc         1 52G       0.047367
    159 H67          1.9160   -20.2720    11.0100 hc         1 52G       0.047367
    160 H68         -0.7350   -21.3950    13.3190 hc         1 52G       0.047367
    161 H69         -1.5240   -22.5820    12.2830 hc         1 52G       0.047367
    162 H70          0.0730   -22.9180    12.9480 hc         1 52G       0.047367
    163 H71         -1.4520   -20.8290    10.4050 ho         1 52G       0.444000
    164 H72          0.0200   -24.9390     9.5670 hn         1 52G       0.338500
    165 H73         -2.9080   -24.7840     9.8000 h1         1 52G       0.066700
    166 H74         -2.3140   -25.3010     8.2340 h1         1 52G       0.066700
    167 H75         -2.8890   -27.1710     9.8430 hc         1 52G       0.082200
    168 H76         -1.2790   -27.2840     9.1350 hc         1 52G       0.082200
    169 H80         -0.2520   -25.5700    14.1860 h1         1 52G       0.095200
    170 H81         -1.1300   -27.1050    14.2740 h1         1 52G       0.095200
    171 H82          0.7230   -27.9810    13.1770 h1         1 52G       0.108700
    172 H86          4.3680   -24.9580    10.7550 h4         1 52G       0.194000
    173 H88          2.4780   -23.5500    14.6810 hn         1 52G       0.345500
    174 H89          3.4700   -20.9980    14.0260 h1         1 52G       0.047700
    175 H90          2.8220   -21.4970    15.5680 h1         1 52G       0.047700
    176 H91          4.9450   -21.8450    16.5200 hc         1 52G       0.081200
    177 H92          5.6760   -22.3160    14.9910 hc         1 52G       0.081200
    178 H93          5.5390   -18.3920    15.8030 hn         1 52G       0.396400
    179 H94          9.4530   -21.4590    13.5400 DU         1 52G       0.000000
    180 H95          5.8790   -20.7650    13.3390 hn         1 52G       0.427800
    181 C4           1.8650   -16.6420    14.0000 c          1 52G       0.676100
    182 H10          8.5170   -14.0840     9.5890 h1         1 52G       0.068700
@<TRIPOS>BOND
     1     1     2 2   
     2     2     3 1   
     3     2    54 1   
     4     3     4 1   
     5     3    53 1   
     6     3    97 1   
     7     4    52 1   
     8     4    98 1   
     9     4    99 1   
    10     5   181 2   
    11     6     7 1   
    12     6   100 1   
    13     6   101 1   
    14     6   181 1   
    15     7     8 1   
    16     7    52 1   
    17     7   102 1   
    18     8    47 ar  
    19     8    50 ar  
    20     9    10 ar  
    21     9    49 1   
    22     9    50 ar  
    23    10    11 ar  
    24    10    48 1   
    25    11    46 1   
    26    11    47 ar  
    27    12    46 2   
    28    13    14 1   
    29    13   103 1   
    30    13   104 1   
    31    14    15 2   
    32    14    16 1   
    33    16    17 1   
    34    17    18 1   
    35    17    20 1   
    36    17   105 1   
    37    18    19 1   
    38    18    26 1   
    39    18   182 1   
    40    19   106 1   
    41    20    21 1   
    42    20    22 1   
    43    20   107 1   
    44    21   108 1   
    45    22    23 1   
    46    22    25 1   
    47    22   109 1   
    48    23    24 1   
    49    23   110 1   
    50    23   111 1   
    51    24   112 1   
    52    25    26 1   
    53    26    27 1   
    54    26   113 1   
    55    27    28 1   
    56    28    29 1   
    57    28    36 1   
    58    28   114 1   
    59    29    30 1   
    60    29    31 1   
    61    29   115 1   
    62    30   116 1   
    63    31    32 1   
    64    31    33 1   
    65    31   117 1   
    66    32   118 1   
    67    33    34 1   
    68    33    35 1   
    69    33   119 1   
    70    34   120 1   
    71    34   121 1   
    72    34   122 1   
    73    35    36 1   
    74    36    37 1   
    75    36   123 1   
    76    37    38 1   
    77    38    39 1   
    78    38    44 1   
    79    38   124 1   
    80    39    40 1   
    81    39    43 2   
    82    40    41 2   
    83    41    42 1   
    84    41   125 1   
    85    42    43 1   
    86    42   126 1   
    87    43   127 1   
    88    44    45 1   
    89    44    55 1   
    90    44   128 1   
    91    45    46 1   
    92    45   129 1   
    93    48   130 1   
    94    48   131 1   
    95    48   132 1   
    96    49   133 1   
    97    49   134 1   
    98    51   135 1   
    99    51   136 1   
   100    51   181 1   
   101    52   137 1   
   102    53   138 1   
   103    53   139 1   
   104    54    96 1   
   105    54   141 1   
   106    55    56 2   
   107    55    57 1   
   108    57    58 1   
   109    57   142 1   
   110    58    59 1   
   111    58    62 1   
   112    58   143 1   
   113    59    60 1   
   114    59   144 1   
   115    59   145 1   
   116    60    61 1   
   117    60   146 1   
   118    60   147 1   
   119    61   148 1   
   120    62    63 1   
   121    62    64 1   
   122    62   149 1   
   123    63   150 1   
   124    64    65 1   
   125    64    66 1   
   126    64   151 1   
   127    65   152 1   
   128    65   153 1   
   129    65   154 1   
   130    66    67 2   
   131    66    68 1   
   132    68    69 1   
   133    68   155 1   
   134    69    70 1   
   135    69    74 1   
   136    69   156 1   
   137    70    71 1   
   138    70    72 1   
   139    70    73 1   
   140    71   157 1   
   141    71   158 1   
   142    71   159 1   
   143    72   160 1   
   144    72   161 1   
   145    72   162 1   
   146    73   163 1   
   147    74    75 2   
   148    74    76 1   
   149    76    77 1   
   150    76   164 1   
   151    77    78 1   
   152    77   165 1   
   153    77   166 1   
   154    78    79 1   
   155    78   167 1   
   156    78   168 1   
   157    79    80 2   
   158    79    81 1   
   159    80    83 1   
   160    81    82 1   
   161    82    83 1   
   162    82   169 1   
   163    82   170 1   
   164    83    84 1   
   165    83   171 1   
   166    84    85 2   
   167    84    86 1   
   168    85    88 1   
   169    86    87 1   
   170    87    88 2   
   171    87   172 1   
   172    88    89 1   
   173    89    90 2   
   174    89    91 1   
   175    91    92 1   
   176    91   173 1   
   177    92    93 1   
   178    92   174 1   
   179    92   175 1   
   180    93    94 1   
   181    93   176 1   
   182    93   177 1   
   183    94    95 2   
   184    94    96 1   
   185    95   178 1   
   186    96   180 1   
@<TRIPOS>SUBSTRUCTURE
     1 52G         1 TEMP              0 ****  ****    0 ROOT
