@<TRIPOS>MOLECULE
52H
   55    57     1     0     0
SMALL
abcg2


@<TRIPOS>ATOM
      1 C4           3.5220     0.2410     0.3870 ca         1 52H       0.133500
      2 C5           3.4190    -1.0940     0.7470 ca         1 52H      -0.102600
      3 C6           4.6230    -1.8220     0.7960 ca         1 52H       0.449900
      4 C8           1.4520    -0.3330     0.8080 cc         1 52H       0.414700
      5 N1           5.7560    -1.1770     0.5000 nb         1 52H      -0.302000
      6 N3           4.6410     0.8960     0.0890 nb         1 52H      -0.212000
      7 CBB         -2.0080    -2.8750    -1.4370 c3         1 52H      -0.071000
      8 CAB         -0.6370    -3.3610    -0.9650 c3         1 52H      -0.090433
      9 CAC         -1.8470    -1.5600    -2.2010 c3         1 52H      -0.090433
     10 CAX         -2.9960    -2.6840    -0.2550 c3         1 52H       0.110300
     11 OAH         -3.1210    -3.8110     0.5610 oh         1 52H      -0.635000
     12 CAT         -2.6450    -1.4840     0.6240 c          1 52H       0.595100
     13 OAE         -1.8100    -1.5270     1.4960 o          1 52H      -0.529100
     14 NAQ         -3.3700    -0.3410     0.3640 ns         1 52H      -0.620300
     15 SBE         -3.3540     1.0170     1.3350 s6         1 52H       1.431500
     16 OAF         -4.3330     1.8970     0.7530 o          1 52H      -0.529000
     17 OAG         -3.4070     0.6450     2.7200 o          1 52H      -0.529000
     18 O5          -1.8930     1.5970     1.1380 os         1 52H      -0.543700
     19 C7          -0.3060     3.0030     0.0610 c5         1 52H       0.170300
     20 O4           0.7000     2.3800     0.8550 os         1 52H      -0.418000
     21 C3           0.3600     3.3480    -1.2640 c5         1 52H       0.108300
     22 O3           1.0010     4.5850    -1.1290 oh         1 52H      -0.698000
     23 C2           1.3800     2.2080    -1.3770 c5         1 52H       0.078300
     24 O2           2.4810     2.4870    -2.1830 oh         1 52H      -0.683000
     25 C1           1.8190     2.0550     0.0820 c5         1 52H       0.320300
     26 N9           2.2430     0.7180     0.4270 na         1 52H      -0.297300
     27 N7           2.1180    -1.4310     1.0100 nd         1 52H      -0.555100
     28 C10          5.7020     0.1120     0.1740 ca         1 52H       0.180900
     29 N6           4.6690    -3.1150     1.1190 nv         1 52H      -1.064900
     30 H8           0.3900    -0.2220     0.9620 h5         1 52H       0.083800
     31 HAA         -2.7620    -4.8780    -1.8680 hc         1 52H       0.041033
     32 HAAA        -3.5770    -3.5970    -2.7700 hc         1 52H       0.041033
     33 HAAB        -1.9490    -4.0970    -3.2220 hc         1 52H       0.041033
     34 HAB          0.0170    -3.4950    -1.8290 hc         1 52H       0.041033
     35 HABA        -0.1380    -2.6610    -0.2940 hc         1 52H       0.041033
     36 HABB        -0.6910    -4.3310    -0.4670 hc         1 52H       0.041033
     37 HAC         -2.8080    -1.1310    -2.4930 hc         1 52H       0.041033
     38 HACA        -1.3020    -0.8090    -1.6240 hc         1 52H       0.041033
     39 HACB        -1.2750    -1.7290    -3.1140 hc         1 52H       0.041033
     40 HAX         -3.9880    -2.5150    -0.6870 h1         1 52H       0.079700
     41 HOAH        -2.2840    -3.9700     1.0120 ho         1 52H       0.467000
     42 HNAQ        -4.0890    -0.3440    -0.3510 hn         1 52H       0.345500
     43 H5          -1.2320     1.2220    -0.7870 h1         1 52H       0.053700
     44 H5'A        -2.2900     2.6340    -0.6410 h1         1 52H       0.053700
     45 H4          -0.6500     3.9000     0.5820 h1         1 52H       0.113700
     46 H3          -0.3530     3.3430    -2.0990 h1         1 52H       0.052700
     47 HO3          1.6830     4.6450    -1.8090 ho         1 52H       0.528000
     48 H2           0.8670     1.2930    -1.6980 h1         1 52H       0.049700
     49 HO2          2.2600     2.2830    -3.0970 ho         1 52H       0.514000
     50 H1           2.6640     2.7200     0.2960 h2         1 52H       0.122700
     51 H6           6.6570     0.5760    -0.0490 h5         1 52H       0.046100
     52 HN6          3.8400    -3.6090     1.3970 hn         1 52H       0.506000
     53 HN6A         5.5550    -3.5810     1.2140 hn         1 52H       0.506000
     54 C9          -1.4870     2.0770    -0.1550 c3         1 52H       0.175600
     55 CAA         -2.6130    -3.9240    -2.3740 c3         1 52H      -0.090433
@<TRIPOS>BOND
     1     1     2 ar  
     2     1     6 ar  
     3     1    26 1   
     4     2     3 ar  
     5     2    27 1   
     6     3     5 ar  
     7     3    29 1   
     8     4    26 1   
     9     4    27 2   
    10     4    30 1   
    11     5    28 ar  
    12     6    28 ar  
    13     7     8 1   
    14     7     9 1   
    15     7    10 1   
    16     7    55 1   
    17     8    34 1   
    18     8    35 1   
    19     8    36 1   
    20     9    37 1   
    21     9    38 1   
    22     9    39 1   
    23    10    11 1   
    24    10    12 1   
    25    10    40 1   
    26    11    41 1   
    27    12    13 2   
    28    12    14 1   
    29    14    15 1   
    30    14    42 1   
    31    15    16 2   
    32    15    17 2   
    33    15    18 1   
    34    18    54 1   
    35    19    20 1   
    36    19    21 1   
    37    19    45 1   
    38    19    54 1   
    39    20    25 1   
    40    21    22 1   
    41    21    23 1   
    42    21    46 1   
    43    22    47 1   
    44    23    24 1   
    45    23    25 1   
    46    23    48 1   
    47    24    49 1   
    48    25    26 1   
    49    25    50 1   
    50    28    51 1   
    51    29    52 1   
    52    29    53 1   
    53    31    55 1   
    54    32    55 1   
    55    33    55 1   
    56    43    54 1   
    57    44    54 1   
@<TRIPOS>SUBSTRUCTURE
     1 52H         1 TEMP              0 ****  ****    0 ROOT
