@<TRIPOS>MOLECULE
52H
   55    57     1     0     0
SMALL
No Charge or Current Charge


@<TRIPOS>ATOM
      1 C4           4.0000     0.5990     1.0490 ca         1 52H       0.133500
      2 C5           4.1850    -0.4030     1.9670 ca         1 52H      -0.102600
      3 C6           5.4310    -0.4800     2.6240 ca         1 52H       0.449900
      4 C8           2.1760    -0.6690     1.2390 cc         1 52H       0.414700
      5 N1           6.4080     0.4040     2.3670 nb         1 52H      -0.302000
      6 N3           4.9610     1.5000     0.7620 nb         1 52H      -0.212000
      7 CBB         -3.0830    -2.0790    -2.3230 c3         1 52H      -0.071000
      8 CAB         -1.6890    -2.3720    -2.9490 c3         1 52H      -0.090433
      9 CAC         -3.3330    -0.5450    -2.3720 c3         1 52H      -0.090433
     10 CAX         -3.1800    -2.5910    -0.8360 c3         1 52H       0.110300
     11 OAH         -3.0270    -4.0330    -0.7880 oh         1 52H      -0.635000
     12 CAT         -2.1780    -1.8890     0.1420 c          1 52H       0.595100
     13 OAE         -1.0260    -2.2760     0.2750 o          1 52H      -0.529100
     14 NAQ         -2.6950    -0.8650     0.8740 ns         1 52H      -0.620300
     15 SBE         -1.9110     0.0680     2.0000 s6         1 52H       1.431500
     16 OAF         -2.8520     1.0950     2.4560 o          1 52H      -0.529000
     17 OAG         -1.2290    -0.8160     2.9490 o          1 52H      -0.529000
     18 O5          -0.7880     0.7410     1.0090 os         1 52H      -0.543700
     19 C7           0.0580     2.4830    -0.5150 c5         1 52H       0.170300
     20 O4           1.3310     2.3090     0.1700 os         1 52H      -0.418000
     21 C3           0.2110     1.7150    -1.8720 c5         1 52H       0.108300
     22 O3           0.9020     2.4700    -2.8740 oh         1 52H      -0.698000
     23 C2           1.0830     0.5110    -1.4320 c5         1 52H       0.078300
     24 O2           1.7190    -0.1070    -2.5700 oh         1 52H      -0.683000
     25 C1           2.0760     1.2360    -0.4560 c5         1 52H       0.320300
     26 N9           2.7290     0.4340     0.5780 na         1 52H      -0.297300
     27 N7           3.0540    -1.2130     2.1040 nd         1 52H      -0.555100
     28 C10          6.1230     1.3530     1.4420 ca         1 52H       0.180900
     29 N6           5.7130    -1.4320     3.5530 nv         1 52H      -1.064900
     30 H8           1.1680    -1.0190     1.0540 h5         1 52H       0.083800
     31 HAA         -4.0180    -3.8480    -3.2550 hc         1 52H       0.041033
     32 HAAA        -5.1760    -2.5930    -2.7730 hc         1 52H       0.041033
     33 HAAB        -4.1700    -2.3710    -4.2160 hc         1 52H       0.041033
     34 HAB         -1.6500    -2.0240    -3.9890 hc         1 52H       0.041033
     35 HABA        -0.8880    -1.8610    -2.4030 hc         1 52H       0.041033
     36 HABB        -1.4690    -3.4460    -2.9530 hc         1 52H       0.041033
     37 HAC         -4.3070    -0.2900    -1.9360 hc         1 52H       0.041033
     38 HACA        -2.5610     0.0040    -1.8230 hc         1 52H       0.041033
     39 HACB        -3.3240    -0.1790    -3.4060 hc         1 52H       0.041033
     40 HAX         -4.1850    -2.3370    -0.4710 h1         1 52H       0.079700
     41 HOAH        -2.0600    -4.2170    -0.8030 ho         1 52H       0.467000
     42 HNAQ        -3.6490    -0.5720     0.7540 hn         1 52H       0.345500
     43 H5          -2.0280     1.9150    -0.2220 h1         1 52H       0.053700
     44 H5'A        -1.2950     2.7680     1.1520 h1         1 52H       0.053700
     45 H4          -0.1000     3.5540    -0.7050 h1         1 52H       0.113700
     46 H3          -0.7620     1.3820    -2.2580 h1         1 52H       0.052700
     47 HO3          1.4200     1.7830    -3.3640 ho         1 52H       0.528000
     48 H2           0.4670    -0.2260    -0.9020 h1         1 52H       0.049700
     49 HO2          2.1170    -0.9590    -2.2700 ho         1 52H       0.514000
     50 H1           2.8860     1.6800    -1.0500 h2         1 52H       0.122700
     51 H6           6.9100     2.0740     1.2240 h5         1 52H       0.046100
     52 HN6          4.9220    -1.9600     3.9160 hn         1 52H       0.506000
     53 HN6A         6.4810    -1.2640     4.1960 hn         1 52H       0.506000
     54 C9          -1.1190     1.9980     0.3890 c3         1 52H       0.175600
     55 CAA         -4.1770    -2.7650    -3.1920 c3         1 52H      -0.090433
@<TRIPOS>BOND
     1     1     2 ar  
     2     1     6 ar  
     3     1    26 1   
     4     2     3 ar  
     5     2    27 1   
     6     3     5 ar  
     7     3    29 1   
     8     4    26 1   
     9     4    27 2   
    10     4    30 1   
    11     5    28 ar  
    12     6    28 ar  
    13     7     8 1   
    14     7     9 1   
    15     7    10 1   
    16     7    55 1   
    17     8    34 1   
    18     8    35 1   
    19     8    36 1   
    20     9    37 1   
    21     9    38 1   
    22     9    39 1   
    23    10    11 1   
    24    10    12 1   
    25    10    40 1   
    26    11    41 1   
    27    12    13 2   
    28    12    14 1   
    29    14    15 1   
    30    14    42 1   
    31    15    16 2   
    32    15    17 2   
    33    15    18 1   
    34    18    54 1   
    35    19    20 1   
    36    19    21 1   
    37    19    45 1   
    38    19    54 1   
    39    20    25 1   
    40    21    22 1   
    41    21    23 1   
    42    21    46 1   
    43    22    47 1   
    44    23    24 1   
    45    23    25 1   
    46    23    48 1   
    47    24    49 1   
    48    25    26 1   
    49    25    50 1   
    50    28    51 1   
    51    29    52 1   
    52    29    53 1   
    53    31    55 1   
    54    32    55 1   
    55    33    55 1   
    56    43    54 1   
    57    44    54 1   
@<TRIPOS>SUBSTRUCTURE
     1 52H         1 TEMP              0 ****  ****    0 ROOT
