@<TRIPOS>MOLECULE
52I
   69    72     1     0     0
SMALL
abcg2


@<TRIPOS>ATOM
      1 C10          2.3190     2.3010    -0.1240 ca         1 52I       0.087100
      2 C12          1.9550     3.6330     1.7650 c3         1 52I       0.149900
      3 C02          4.6060    -2.6090     0.3450 ca         1 52I       0.423900
      4 C03          4.7020    -2.1310    -0.9840 ca         1 52I      -0.315300
      5 C04          3.5450    -1.5080    -1.7050 c3         1 52I       0.040200
      6 C05          3.1080    -0.1790    -1.1280 ca         1 52I      -0.061300
      7 C06          4.0640     0.8000    -0.8460 ca         1 52I      -0.176000
      8 C07          3.6820     2.0350    -0.3490 ca         1 52I       0.123100
      9 O08          4.5250     3.0390    -0.0600 os         1 52I      -0.325100
     10 C09          5.9140     2.8050    -0.1880 c3         1 52I       0.142900
     11 O11          1.9620     3.5240     0.3450 os         1 52I      -0.345100
     12 C13          1.3590     1.3290    -0.3930 ca         1 52I      -0.053800
     13 C31          1.7740     0.0890    -0.9020 ca         1 52I      -0.134000
     14 C32          5.9390    -2.2910    -1.5620 ca         1 52I       0.171900
     15 N33          6.9950    -2.8410    -0.9670 nb         1 52I      -0.278000
     16 C34          6.7900    -3.2500     0.2850 ca         1 52I       0.407900
     17 N35          7.8480    -3.7780     0.9440 nv         1 52I      -1.057900
     18 N36          5.6460    -3.1620     0.9620 nb         1 52I      -0.332000
     19 C14         -0.0510     1.6420    -0.1720 ce         1 52I      -0.087200
     20 C16         -2.4370     1.2130     0.0470 c          1 52I       0.630300
     21 N17         -3.4260     0.2660    -0.0380 n          1 52I      -0.186800
     22 N18         -3.0680    -1.0240    -0.2870 n2         1 52I      -0.439300
     23 C19         -3.9500    -1.7850    -0.8100 ce         1 52I       0.397800
     24 C25         -5.2590    -1.3350    -1.2440 ca         1 52I      -0.168900
     25 C26         -6.0430    -2.0730    -2.1280 ca         1 52I      -0.078000
     26 C27         -7.2390    -1.5460    -2.5870 ca         1 52I      -0.110000
     27 C28         -7.6490    -0.2840    -2.1670 ca         1 52I      -0.095000
     28 C29         -6.8680     0.4510    -1.2830 ca         1 52I      -0.096000
     29 C24         -5.6760    -0.0760    -0.8140 ca         1 52I      -0.078300
     30 C20         -4.8270     0.6010     0.2240 c6         1 52I       0.144000
     31 C21         -5.2620     0.1420     1.6240 c3         1 52I      -0.085400
     32 C15         -1.0480     0.7490    -0.1500 cf         1 52I      -0.274200
     33 C22         -4.5560     0.8070     2.8070 c3         1 52I      -0.056700
     34 C23         -4.9040     2.2860     2.9320 c3         1 52I      -0.090100
     35 C37         -4.9180     0.0660     4.0920 c3         1 52I      -0.090100
     36 H1           1.7050     4.6640     2.0060 h1         1 52I       0.037367
     37 H2           1.2040     2.9750     2.2100 h1         1 52I       0.037367
     38 H3           2.9300     3.3950     2.1940 h1         1 52I       0.037367
     39 H4           2.7010    -1.9540     0.7250 hn         1 52I       0.490500
     40 H5           3.4640    -2.7730     2.0100 hn         1 52I       0.490500
     41 H6           3.8280    -1.3620    -2.7520 hc         1 52I       0.055200
     42 H7           2.6870    -2.1870    -1.7210 hc         1 52I       0.055200
     43 H8           5.1080     0.5750    -1.0250 ha         1 52I       0.127000
     44 H9           6.4110     3.7160     0.1350 h1         1 52I       0.044033
     45 H10          6.2480     1.9780     0.4440 h1         1 52I       0.044033
     46 H11          6.1990     2.5980    -1.2230 h1         1 52I       0.044033
     47 H12          1.0350    -0.6670    -1.1390 ha         1 52I       0.120000
     48 H13          6.0910    -1.9520    -2.5840 h4         1 52I       0.014100
     49 H14          8.6490    -4.0580     0.4060 hn         1 52I       0.489500
     50 H15          7.6730    -4.2930     1.7900 hn         1 52I       0.489500
     51 H16         -0.2940     2.6870    -0.0220 ha         1 52I       0.212000
     52 H19         -3.6390    -2.8070    -1.0000 h4         1 52I       0.036800
     53 H20         -5.7100    -3.0480    -2.4620 ha         1 52I       0.117000
     54 H21         -7.8510    -2.1120    -3.2760 ha         1 52I       0.117000
     55 H22         -8.5810     0.1280    -2.5300 ha         1 52I       0.117000
     56 H23         -7.1960     1.4290    -0.9510 ha         1 52I       0.121000
     57 H24         -4.9220     1.6820     0.1350 h1         1 52I       0.100700
     58 H25         -6.3390     0.3240     1.7020 hc         1 52I       0.048700
     59 H26         -5.1360    -0.9430     1.6920 hc         1 52I       0.048700
     60 H27         -0.8680    -0.3070    -0.2780 ha         1 52I       0.203000
     61 H28         -3.4730     0.7110     2.6700 hc         1 52I       0.053700
     62 H29         -4.3780     2.7360     3.7760 hc         1 52I       0.034533
     63 H30         -4.6340     2.8510     2.0410 hc         1 52I       0.034533
     64 H31         -5.9750     2.4160     3.1040 hc         1 52I       0.034533
     65 H32         -4.4160     0.5070     4.9550 hc         1 52I       0.034533
     66 H33         -5.9940     0.1080     4.2780 hc         1 52I       0.034533
     67 H34         -4.6320    -0.9860     4.0400 hc         1 52I       0.034533
     68 N01          3.4460    -2.5580     1.0270 nv         1 52I      -1.065900
     69 O30         -2.7130     2.3850     0.2560 o          1 52I      -0.593100
@<TRIPOS>BOND
     1     1     8 ar  
     2     1    11 1   
     3     1    12 ar  
     4     2    11 1   
     5     2    36 1   
     6     2    37 1   
     7     2    38 1   
     8     3     4 ar  
     9     3    18 ar  
    10     3    68 1   
    11     4     5 1   
    12     4    14 ar  
    13     5     6 1   
    14     5    41 1   
    15     5    42 1   
    16     6     7 ar  
    17     6    13 ar  
    18     7     8 ar  
    19     7    43 1   
    20     8     9 1   
    21     9    10 1   
    22    10    44 1   
    23    10    45 1   
    24    10    46 1   
    25    12    13 ar  
    26    12    19 1   
    27    13    47 1   
    28    14    15 ar  
    29    14    48 1   
    30    15    16 ar  
    31    16    17 1   
    32    16    18 ar  
    33    17    49 1   
    34    17    50 1   
    35    19    32 2   
    36    19    51 1   
    37    20    21 1   
    38    20    32 1   
    39    20    69 2   
    40    21    22 1   
    41    21    30 1   
    42    22    23 2   
    43    23    24 1   
    44    23    52 1   
    45    24    25 ar  
    46    24    29 ar  
    47    25    26 ar  
    48    25    53 1   
    49    26    27 ar  
    50    26    54 1   
    51    27    28 ar  
    52    27    55 1   
    53    28    29 ar  
    54    28    56 1   
    55    29    30 1   
    56    30    31 1   
    57    30    57 1   
    58    31    33 1   
    59    31    58 1   
    60    31    59 1   
    61    32    60 1   
    62    33    34 1   
    63    33    35 1   
    64    33    61 1   
    65    34    62 1   
    66    34    63 1   
    67    34    64 1   
    68    35    65 1   
    69    35    66 1   
    70    35    67 1   
    71    39    68 1   
    72    40    68 1   
@<TRIPOS>SUBSTRUCTURE
     1 52I         1 TEMP              0 ****  ****    0 ROOT
