@<TRIPOS>MOLECULE
52I
   69    72     1     0     0
SMALL
No Charge or Current Charge


@<TRIPOS>ATOM
      1 C10          2.4240     2.3640     0.1110 ca         1 52I       0.087100
      2 C12          2.7400     4.5670     1.2830 c3         1 52I       0.149900
      3 C02          4.3340    -2.7310     0.1460 ca         1 52I       0.423900
      4 C03          4.6600    -2.1160    -1.0740 ca         1 52I      -0.315300
      5 C04          3.6560    -1.3090    -1.8990 c3         1 52I       0.040200
      6 C05          3.2240    -0.0250    -1.1960 ca         1 52I      -0.061300
      7 C06          4.1890     0.8980    -0.7620 ca         1 52I      -0.176000
      8 C07          3.8130     2.0940    -0.1070 ca         1 52I       0.123100
      9 O08          4.7860     2.9870     0.3140 os         1 52I      -0.325100
     10 C09          6.1960     2.7630     0.1330 c3         1 52I       0.142900
     11 O11          1.9330     3.5020     0.7510 os         1 52I      -0.345100
     12 C13          1.4550     1.4270    -0.3320 ca         1 52I      -0.053800
     13 C31          1.8650     0.2470    -0.9820 ca         1 52I      -0.134000
     14 C32          5.9850    -2.2810    -1.5200 ca         1 52I       0.171900
     15 N33          6.8850    -2.9900    -0.8120 nb         1 52I      -0.278000
     16 C34          6.4420    -3.5240     0.3330 ca         1 52I       0.407900
     17 N35          7.3400    -4.2400     1.0460 nv         1 52I      -1.057900
     18 N36          5.2160    -3.4380     0.8580 nb         1 52I      -0.332000
     19 C14         -0.0070     1.6830    -0.1280 ce         1 52I      -0.087200
     20 C16         -2.4650     1.1430     0.1290 c          1 52I       0.630300
     21 N17         -3.4480     0.1100     0.1560 n          1 52I      -0.186800
     22 N18         -3.1300    -1.2210    -0.1100 n2         1 52I      -0.439300
     23 C19         -3.8110    -1.8910    -0.9920 ce         1 52I       0.397800
     24 C25         -5.1770    -1.4350    -1.3860 ca         1 52I      -0.168900
     25 C26         -5.9140    -2.1060    -2.3820 ca         1 52I      -0.078000
     26 C27         -7.1950    -1.6480    -2.7350 ca         1 52I      -0.110000
     27 C28         -7.7420    -0.5200    -2.0980 ca         1 52I      -0.095000
     28 C29         -7.0100     0.1510    -1.1040 ca         1 52I      -0.096000
     29 C24         -5.7270    -0.3050    -0.7460 ca         1 52I      -0.078300
     30 C20         -4.9040     0.4010     0.3430 c6         1 52I       0.144000
     31 C21         -5.4200    -0.0210     1.7540 c3         1 52I      -0.085400
     32 C15         -1.0300     0.7770    -0.0830 cf         1 52I      -0.274200
     33 C22         -4.7870     0.7140     2.9680 c3         1 52I      -0.056700
     34 C23         -5.1390     2.2210     2.9980 c3         1 52I      -0.090100
     35 C37         -5.1900     0.0370     4.2970 c3         1 52I      -0.090100
     36 H1           2.0980     5.3350     1.7340 h1         1 52I       0.037367
     37 H2           3.4150     4.1960     2.0650 h1         1 52I       0.037367
     38 H3           3.3290     5.0470     0.4920 h1         1 52I       0.037367
     39 H4           2.5160    -1.8730     0.3830 hn         1 52I       0.490500
     40 H5           3.0000    -2.9110     1.6700 hn         1 52I       0.490500
     41 H6           4.0880    -1.0520    -2.8740 hc         1 52I       0.055200
     42 H7           2.7850    -1.9360    -2.1280 hc         1 52I       0.055200
     43 H8           5.2330     0.6640    -0.9450 ha         1 52I       0.127000
     44 H9           6.7690     3.6010     0.5490 h1         1 52I       0.044033
     45 H10          6.5150     1.8460     0.6450 h1         1 52I       0.044033
     46 H11          6.4440     2.6790    -0.9330 h1         1 52I       0.044033
     47 H12          1.1220    -0.4600    -1.3420 ha         1 52I       0.120000
     48 H13          6.3330    -1.8410    -2.4530 h4         1 52I       0.014100
     49 H14          8.2020    -4.5250     0.5860 hn         1 52I       0.489500
     50 H15          6.9970    -4.8430     1.7900 hn         1 52I       0.489500
     51 H16         -0.2620     2.7370     0.0060 ha         1 52I       0.212000
     52 H19         -3.4420    -2.8280    -1.4140 h4         1 52I       0.036800
     53 H20         -5.4960    -2.9780    -2.8810 ha         1 52I       0.117000
     54 H21         -7.7640    -2.1660    -3.5050 ha         1 52I       0.117000
     55 H22         -8.7340    -0.1680    -2.3740 ha         1 52I       0.117000
     56 H23         -7.4390     1.0210    -0.6120 ha         1 52I       0.121000
     57 H24         -5.0780     1.4800     0.2250 h1         1 52I       0.100700
     58 H25         -6.5070     0.1190     1.7980 hc         1 52I       0.048700
     59 H26         -5.2570    -1.0990     1.8750 hc         1 52I       0.048700
     60 H27         -0.8060    -0.2790    -0.1930 ha         1 52I       0.203000
     61 H28         -3.6960     0.6290     2.8850 hc         1 52I       0.053700
     62 H29         -4.6780     2.7070     3.8660 hc         1 52I       0.034533
     63 H30         -4.7770     2.7350     2.1010 hc         1 52I       0.034533
     64 H31         -6.2240     2.3670     3.0620 hc         1 52I       0.034533
     65 H32         -4.7070     0.5320     5.1480 hc         1 52I       0.034533
     66 H33         -6.2760     0.0820     4.4460 hc         1 52I       0.034533
     67 H34         -4.8860    -1.0170     4.3050 hc         1 52I       0.034533
     68 N01          3.1010    -2.6410     0.6950 nv         1 52I      -1.065900
     69 O30         -2.7790     2.3180     0.2770 o          1 52I      -0.593100
@<TRIPOS>BOND
     1     1     8 ar  
     2     1    11 1   
     3     1    12 ar  
     4     2    11 1   
     5     2    36 1   
     6     2    37 1   
     7     2    38 1   
     8     3     4 ar  
     9     3    18 ar  
    10     3    68 1   
    11     4     5 1   
    12     4    14 ar  
    13     5     6 1   
    14     5    41 1   
    15     5    42 1   
    16     6     7 ar  
    17     6    13 ar  
    18     7     8 ar  
    19     7    43 1   
    20     8     9 1   
    21     9    10 1   
    22    10    44 1   
    23    10    45 1   
    24    10    46 1   
    25    12    13 ar  
    26    12    19 1   
    27    13    47 1   
    28    14    15 ar  
    29    14    48 1   
    30    15    16 ar  
    31    16    17 1   
    32    16    18 ar  
    33    17    49 1   
    34    17    50 1   
    35    19    32 2   
    36    19    51 1   
    37    20    21 1   
    38    20    32 1   
    39    20    69 2   
    40    21    22 1   
    41    21    30 1   
    42    22    23 2   
    43    23    24 1   
    44    23    52 1   
    45    24    25 ar  
    46    24    29 ar  
    47    25    26 ar  
    48    25    53 1   
    49    26    27 ar  
    50    26    54 1   
    51    27    28 ar  
    52    27    55 1   
    53    28    29 ar  
    54    28    56 1   
    55    29    30 1   
    56    30    31 1   
    57    30    57 1   
    58    31    33 1   
    59    31    58 1   
    60    31    59 1   
    61    32    60 1   
    62    33    34 1   
    63    33    35 1   
    64    33    61 1   
    65    34    62 1   
    66    34    63 1   
    67    34    64 1   
    68    35    65 1   
    69    35    66 1   
    70    35    67 1   
    71    39    68 1   
    72    40    68 1   
@<TRIPOS>SUBSTRUCTURE
     1 52I         1 TEMP              0 ****  ****    0 ROOT
