@<TRIPOS>MOLECULE
52J
   69    72     1     0     0
SMALL
bcc


@<TRIPOS>ATOM
      1 N01          4.9540     1.0670     1.1520 nv         1 52J      -0.959500
      2 C02          4.1790     2.0240     0.6110 ca         1 52J       0.757200
      3 C03          3.7880     1.9750    -0.7490 ca         1 52J      -0.449900
      4 C04          4.2100     0.8730    -1.6720 c3         1 52J       0.044200
      5 C05          3.5870    -0.4670    -1.3450 ca         1 52J      -0.055300
      6 C06          4.3710    -1.6210    -1.3650 ca         1 52J      -0.212000
      7 C07          3.8110    -2.8610    -1.0860 ca         1 52J       0.119100
      8 O08          4.4870    -4.0210    -1.0870 os         1 52J      -0.301900
      9 C09          5.8700    -3.9920    -1.3790 c3         1 52J       0.122700
     10 C10          2.4440    -2.9500    -0.7800 ca         1 52J       0.086100
     11 O11          1.9060    -4.1710    -0.5260 os         1 52J      -0.323900
     12 C12          2.0210    -4.6020     0.8260 c3         1 52J       0.126700
     13 C13          1.6520    -1.8000    -0.7540 ca         1 52J      -0.046800
     14 O30         -2.4330    -2.2540     0.4090 o          1 52J      -0.594100
     15 C31          2.2430    -0.5650    -1.0470 ca         1 52J      -0.123000
     16 C32          2.9820     3.0130    -1.1510 ca         1 52J       0.504200
     17 N33          2.5640     4.0040    -0.3650 nb         1 52J      -0.803000
     18 C34          2.9870     3.9420     0.8970 ca         1 52J       0.932900
     19 N35          2.5480     4.9030     1.7450 nv         1 52J      -0.942500
     20 N36          3.7790     3.0040     1.4150 nb         1 52J      -0.858000
     21 C14          0.2320    -1.9200    -0.4310 ce         1 52J      -0.040200
     22 C15         -0.6220    -0.8970    -0.2990 cf         1 52J      -0.219200
     23 C16         -2.0310    -1.1550     0.0580 c          1 52J       0.698300
     24 N17         -2.8920    -0.0890    -0.0260 n          1 52J      -0.253800
     25 N18         -2.4090     1.0910    -0.4990 n2         1 52J      -0.434300
     26 C19         -3.2520     1.9270    -0.9690 ce         1 52J       0.394800
     27 C20         -4.2600    -0.1680     0.4900 c6         1 52J       0.143000
     28 C21         -4.3670     0.5060     1.8680 c3         1 52J      -0.086400
     29 C22         -3.5700    -0.1350     3.0030 c3         1 52J      -0.056700
     30 C23         -3.5840     0.7910     4.2160 c3         1 52J      -0.089600
     31 C24         -5.1750     0.5260    -0.4790 ca         1 52J      -0.079300
     32 C25         -4.6700     1.6550    -1.1210 ca         1 52J      -0.165900
     33 C26         -5.4900     2.4220    -1.9460 ca         1 52J      -0.097000
     34 C27         -6.8120     2.0510    -2.1330 ca         1 52J      -0.129000
     35 C28         -7.3110     0.9150    -1.5050 ca         1 52J      -0.115000
     36 C29         -6.4940     0.1520    -0.6790 ca         1 52J      -0.114000
     37 C37         -4.1050    -1.5130     3.3780 c3         1 52J      -0.089600
     38 H1           5.3310     1.2150     2.0730 hn         1 52J       0.435800
     39 H2           5.4280     0.3950     0.5760 hn         1 52J       0.435800
     40 H3           3.9360     1.1520    -2.6940 hc         1 52J       0.049200
     41 H4           5.3000     0.7690    -1.6830 hc         1 52J       0.049200
     42 H5           5.4230    -1.5300    -1.6010 ha         1 52J       0.130000
     43 H6           6.4280    -3.3930    -0.6550 h1         1 52J       0.040367
     44 H7           6.2180    -5.0210    -1.3260 h1         1 52J       0.040367
     45 H8           6.0660    -3.6050    -2.3820 h1         1 52J       0.040367
     46 H9           3.0620    -4.6550     1.1490 h1         1 52J       0.037367
     47 H10          1.4750    -3.9380     1.5020 h1         1 52J       0.037367
     48 H11          1.5840    -5.5970     0.8820 h1         1 52J       0.037367
     49 H12          1.6400     0.3330    -1.0360 ha         1 52J       0.146000
     50 H13          2.6440     3.0490    -2.1840 h4         1 52J       0.015100
     51 H14          2.1520     5.7360     1.3440 hn         1 52J       0.431800
     52 H15          3.0310     5.0180     2.6190 hn         1 52J       0.431800
     53 H16         -0.1490    -2.9250    -0.2920 ha         1 52J       0.157000
     54 H17         -0.3110     0.1270    -0.4410 ha         1 52J       0.159000
     55 H19         -2.8380     2.8570    -1.3410 h4         1 52J       0.038800
     56 H21         -4.5220    -1.2220     0.5630 h1         1 52J       0.099700
     57 H22         -4.0710     1.5550     1.7620 hc         1 52J       0.048700
     58 H23         -5.4280     0.5200     2.1410 hc         1 52J       0.048700
     59 H24         -2.5260    -0.2420     2.6860 hc         1 52J       0.054700
     60 H25         -4.6050     0.9570     4.5700 hc         1 52J       0.033867
     61 H26         -3.0140     0.3670     5.0440 hc         1 52J       0.033867
     62 H27         -3.1530     1.7660     3.9800 hc         1 52J       0.033867
     63 H28         -5.0900     3.2960    -2.4450 ha         1 52J       0.135000
     64 H29         -7.4540     2.6410    -2.7740 ha         1 52J       0.134000
     65 H30         -8.3420     0.6250    -1.6550 ha         1 52J       0.134000
     66 H31         -6.8890    -0.7270    -0.1830 ha         1 52J       0.138000
     67 H32         -5.1460    -1.4490     3.7060 hc         1 52J       0.033867
     68 H33         -4.0560    -2.2160     2.5470 hc         1 52J       0.033867
     69 H34         -3.5270    -1.9410     4.1990 hc         1 52J       0.033867
@<TRIPOS>BOND
     1     1     2 1   
     2     1    38 1   
     3     1    39 1   
     4     2     3 ar  
     5     2    20 ar  
     6     3     4 1   
     7     3    16 ar  
     8     4     5 1   
     9     4    40 1   
    10     4    41 1   
    11     5     6 ar  
    12     5    15 ar  
    13     6     7 ar  
    14     6    42 1   
    15     7     8 1   
    16     7    10 ar  
    17     8     9 1   
    18     9    43 1   
    19     9    44 1   
    20     9    45 1   
    21    10    11 1   
    22    10    13 ar  
    23    11    12 1   
    24    12    46 1   
    25    12    47 1   
    26    12    48 1   
    27    13    15 ar  
    28    13    21 1   
    29    14    23 2   
    30    15    49 1   
    31    16    17 ar  
    32    16    50 1   
    33    17    18 ar  
    34    18    19 1   
    35    18    20 ar  
    36    19    51 1   
    37    19    52 1   
    38    21    22 2   
    39    21    53 1   
    40    22    23 1   
    41    22    54 1   
    42    23    24 1   
    43    24    25 1   
    44    24    27 1   
    45    25    26 2   
    46    26    32 1   
    47    26    55 1   
    48    27    28 1   
    49    27    31 1   
    50    27    56 1   
    51    28    29 1   
    52    28    57 1   
    53    28    58 1   
    54    29    30 1   
    55    29    37 1   
    56    29    59 1   
    57    30    60 1   
    58    30    61 1   
    59    30    62 1   
    60    31    32 ar  
    61    31    36 ar  
    62    32    33 ar  
    63    33    34 ar  
    64    33    63 1   
    65    34    35 ar  
    66    34    64 1   
    67    35    36 ar  
    68    35    65 1   
    69    36    66 1   
    70    37    67 1   
    71    37    68 1   
    72    37    69 1   
@<TRIPOS>SUBSTRUCTURE
     1 52J         1 TEMP              0 ****  ****    0 ROOT
