@<TRIPOS>MOLECULE
52J
   69    72     1     0     0
SMALL
No Charge or Current Charge


@<TRIPOS>ATOM
      1 N01          5.2060     1.3970     0.5840 nv         1 52J      -1.069900
      2 C02          4.3390     2.2460    -0.0150 ca         1 52J       0.428900
      3 C03          3.7920     1.9900    -1.2820 ca         1 52J      -0.319300
      4 C04          4.1340     0.7480    -2.1050 c3         1 52J       0.044200
      5 C05          3.5970    -0.5310    -1.4670 ca         1 52J      -0.055300
      6 C06          4.4610    -1.5960    -1.1630 ca         1 52J      -0.194000
      7 C07          3.9700    -2.7850    -0.5720 ca         1 52J       0.119100
      8 O08          4.8410    -3.8240    -0.2830 os         1 52J      -0.325100
      9 C09          6.2520    -3.7730    -0.5590 c3         1 52J       0.145900
     10 C10          2.5720    -2.8970    -0.2800 ca         1 52J       0.086100
     11 O11          1.9760    -4.0110     0.3100 os         1 52J      -0.347100
     12 C12          2.6680    -5.2070     0.7120 c3         1 52J       0.149900
     13 C13          1.7090    -1.8140    -0.5890 ca         1 52J      -0.046800
     14 O30         -2.5640    -2.1870     0.2500 o          1 52J      -0.594100
     15 C31          2.2300    -0.6500    -1.1830 ca         1 52J      -0.105000
     16 C32          2.8930     2.9530    -1.7780 ca         1 52J       0.175900
     17 N33          2.5790     4.0560    -1.0720 nb         1 52J      -0.277000
     18 C34          3.1730     4.1770     0.1230 ca         1 52J       0.406900
     19 N35          2.8660     5.2850     0.8340 nv         1 52J      -1.052900
     20 N36          4.0380     3.3360     0.6960 nb         1 52J      -0.332000
     21 C14          0.2430    -1.8970    -0.3010 ce         1 52J      -0.090200
     22 C15         -0.6380    -0.8700    -0.0980 cf         1 52J      -0.269200
     23 C16         -2.0950    -1.0560     0.1870 c          1 52J       0.631300
     24 N17         -2.9160     0.0930     0.3800 n          1 52J      -0.186800
     25 N18         -2.4250     1.3880     0.2160 n2         1 52J      -0.434300
     26 C19         -3.0540     2.2310    -0.5500 ce         1 52J       0.394800
     27 C20         -4.3840    -0.0120     0.6450 c6         1 52J       0.143000
     28 C21         -4.7490     0.3330     2.1230 c3         1 52J      -0.086400
     29 C22         -4.1570    -0.6010     3.2150 c3         1 52J      -0.056700
     30 C23         -4.3790    -0.0120     4.6270 c3         1 52J      -0.089600
     31 C24         -5.1600     0.9070    -0.3110 ca         1 52J      -0.079300
     32 C25         -4.4920     2.0100    -0.8840 ca         1 52J      -0.165900
     33 C26         -5.1820     2.8720    -1.7570 ca         1 52J      -0.079000
     34 C27         -6.5350     2.6320    -2.0570 ca         1 52J      -0.111000
     35 C28         -7.2000     1.5330    -1.4870 ca         1 52J      -0.097000
     36 C29         -6.5140     0.6700    -0.6150 ca         1 52J      -0.096000
     37 C37         -4.7200    -2.0400     3.1330 c3         1 52J      -0.089600
     38 H1           5.3750     1.5300     1.5770 hn         1 52J       0.491000
     39 H2           5.2170     0.4370     0.2540 hn         1 52J       0.491000
     40 H3           3.7220     0.8400    -3.1180 hc         1 52J       0.049200
     41 H4           5.2210     0.6860    -2.2410 hc         1 52J       0.049200
     42 H5           5.5140    -1.4840    -1.4000 ha         1 52J       0.112000
     43 H6           6.7280    -2.9490    -0.0120 h1         1 52J       0.040367
     44 H7           6.7330    -4.7080    -0.2470 h1         1 52J       0.040367
     45 H8           6.4360    -3.6400    -1.6330 h1         1 52J       0.040367
     46 H9           3.1440    -5.6940    -0.1490 h1         1 52J       0.037367
     47 H10          3.4290    -4.9840     1.4700 h1         1 52J       0.037367
     48 H11          1.9600    -5.9210     1.1500 h1         1 52J       0.037367
     49 H12          1.5680     0.1740    -1.4390 ha         1 52J       0.128000
     50 H13          2.4160     2.8420    -2.7500 h4         1 52J       0.015100
     51 H14          2.4030     6.0520     0.3540 hn         1 52J       0.487000
     52 H15          3.4530     5.5280     1.6280 hn         1 52J       0.487000
     53 H16         -0.1470    -2.9150    -0.2420 ha         1 52J       0.207000
     54 H17         -0.2730     0.1510    -0.1290 ha         1 52J       0.209000
     55 H19         -2.5790     3.1460    -0.9100 h4         1 52J       0.038800
     56 H21         -4.7190    -1.0390     0.4430 h1         1 52J       0.099700
     57 H22         -4.4260     1.3610     2.3300 hc         1 52J       0.048700
     58 H23         -5.8400     0.3400     2.2340 hc         1 52J       0.048700
     59 H24         -3.0720    -0.6590     3.0610 hc         1 52J       0.054700
     60 H25         -5.4490     0.0780     4.8500 hc         1 52J       0.033867
     61 H26         -3.9220    -0.6520     5.3910 hc         1 52J       0.033867
     62 H27         -3.9260     0.9840     4.7080 hc         1 52J       0.033867
     63 H28         -4.6740     3.7240    -2.2040 ha         1 52J       0.117000
     64 H29         -7.0670     3.2990    -2.7320 ha         1 52J       0.116000
     65 H30         -8.2460     1.3490    -1.7210 ha         1 52J       0.116000
     66 H31         -7.0340    -0.1780    -0.1750 ha         1 52J       0.120000
     67 H32         -5.8090    -2.0410     3.2640 hc         1 52J       0.033867
     68 H33         -4.4900    -2.5060     2.1700 hc         1 52J       0.033867
     69 H34         -4.2820    -2.6700     3.9170 hc         1 52J       0.033867
@<TRIPOS>BOND
     1     1     2 1   
     2     1    38 1   
     3     1    39 1   
     4     2     3 ar  
     5     2    20 ar  
     6     3     4 1   
     7     3    16 ar  
     8     4     5 1   
     9     4    40 1   
    10     4    41 1   
    11     5     6 ar  
    12     5    15 ar  
    13     6     7 ar  
    14     6    42 1   
    15     7     8 1   
    16     7    10 ar  
    17     8     9 1   
    18     9    43 1   
    19     9    44 1   
    20     9    45 1   
    21    10    11 1   
    22    10    13 ar  
    23    11    12 1   
    24    12    46 1   
    25    12    47 1   
    26    12    48 1   
    27    13    15 ar  
    28    13    21 1   
    29    14    23 2   
    30    15    49 1   
    31    16    17 ar  
    32    16    50 1   
    33    17    18 ar  
    34    18    19 1   
    35    18    20 ar  
    36    19    51 1   
    37    19    52 1   
    38    21    22 2   
    39    21    53 1   
    40    22    23 1   
    41    22    54 1   
    42    23    24 1   
    43    24    25 1   
    44    24    27 1   
    45    25    26 2   
    46    26    32 1   
    47    26    55 1   
    48    27    28 1   
    49    27    31 1   
    50    27    56 1   
    51    28    29 1   
    52    28    57 1   
    53    28    58 1   
    54    29    30 1   
    55    29    37 1   
    56    29    59 1   
    57    30    60 1   
    58    30    61 1   
    59    30    62 1   
    60    31    32 ar  
    61    31    36 ar  
    62    32    33 ar  
    63    33    34 ar  
    64    33    63 1   
    65    34    35 ar  
    66    34    64 1   
    67    35    36 ar  
    68    35    65 1   
    69    36    66 1   
    70    37    67 1   
    71    37    68 1   
    72    37    69 1   
@<TRIPOS>SUBSTRUCTURE
     1 52J         1 TEMP              0 ****  ****    0 ROOT
