@<TRIPOS>MOLECULE
52K
   41    43     1     0     0
SMALL
bcc


@<TRIPOS>ATOM
      1 C1           4.8300     0.2400    -0.7510 c6         1 52K       0.100400
      2 C2           3.9700     0.1220     0.5120 c6         1 52K       0.180500
      3 C5           5.2600    -2.0340    -0.8290 c6         1 52K       0.037100
      4 C6           4.0610    -2.1860     0.0780 c2         1 52K       0.593200
      5 C8           4.7860     0.4750     1.7620 c3         1 52K      -0.078100
      6 C11          3.0290     2.4620     0.2860 ca         1 52K      -0.156000
      7 C12          0.4220     1.5020     0.1060 ca         1 52K       0.067600
      8 C16         -2.0500     1.4850    -0.1360 c          1 52K       0.581600
      9 C18         -3.1760     0.4910    -0.1810 ca         1 52K       0.351800
     10 C21         -3.8280    -1.6980    -0.0840 ca         1 52K       0.417200
     11 C23         -5.1610    -1.3390    -0.2530 ca         1 52K      -0.083900
     12 CL          -6.3720    -2.5610    -0.2890 cl         1 52K      -0.079400
     13 N19         -2.8680    -0.7940    -0.0500 nb         1 52K      -0.673000
     14 C22         -5.4980    -0.0050    -0.3920 ca         1 52K      -0.094000
     15 C20         -4.4790     0.9330    -0.3540 ca         1 52K      -0.177300
     16 O17         -2.2670     2.6800    -0.2430 o          1 52K      -0.584100
     17 N15         -0.8420     0.9120     0.0280 ns         1 52K      -0.451100
     18 C10          1.4980     0.6250     0.2720 ca         1 52K      -0.154000
     19 C14          0.6570     2.8730     0.0300 ca         1 52K      -0.151000
     20 C13          1.9650     3.3320     0.1210 ca         1 52K      -0.108000
     21 C9           2.8010     1.0860     0.3640 ca         1 52K      -0.042300
     22 N4           3.4690    -1.2290     0.6740 n2         1 52K      -0.685900
     23 N7           3.6510    -3.4720     0.2480 nv         1 52K      -0.922800
     24 O3           5.8250    -0.7570    -0.7520 os         1 52K      -0.384600
     25 H1           4.1920     0.1570    -1.6440 h1         1 52K       0.059200
     26 H2           5.3390     1.2040    -0.7970 h1         1 52K       0.059200
     27 H3           6.0280    -2.7580    -0.5470 h1         1 52K       0.059700
     28 H4           4.9470    -2.2750    -1.8560 h1         1 52K       0.059700
     29 H5           5.1770     1.4920     1.7230 hc         1 52K       0.044700
     30 H6           4.1660     0.3880     2.6550 hc         1 52K       0.044700
     31 H7           5.6300    -0.2060     1.8680 hc         1 52K       0.044700
     32 H8           4.0330     2.8610     0.3580 ha         1 52K       0.129000
     33 H9          -3.5430    -2.7370     0.0260 h4         1 52K       0.038100
     34 H10         -6.5260     0.3000    -0.5260 ha         1 52K       0.159000
     35 H11         -4.7000     1.9860    -0.4590 ha         1 52K       0.173000
     36 H12         -0.8660    -0.0980     0.0970 hn         1 52K       0.347500
     37 H13          1.3180    -0.4410     0.3360 ha         1 52K       0.150000
     38 H14         -0.1480     3.5770    -0.0960 ha         1 52K       0.163000
     39 H15          2.1500     4.3970     0.0610 ha         1 52K       0.131000
     40 H16          2.7240    -3.6070     0.6200 hn         1 52K       0.415300
     41 H17          3.9300    -4.1590    -0.4330 hn         1 52K       0.415300
@<TRIPOS>BOND
     1     1     2 1   
     2     1    24 1   
     3     1    25 1   
     4     1    26 1   
     5     2     5 1   
     6     2    21 1   
     7     2    22 1   
     8     3     4 1   
     9     3    24 1   
    10     3    27 1   
    11     3    28 1   
    12     4    22 2   
    13     4    23 1   
    14     5    29 1   
    15     5    30 1   
    16     5    31 1   
    17     6    20 ar  
    18     6    21 ar  
    19     6    32 1   
    20     7    17 1   
    21     7    18 ar  
    22     7    19 ar  
    23     8     9 1   
    24     8    16 2   
    25     8    17 1   
    26     9    13 ar  
    27     9    15 ar  
    28    10    11 ar  
    29    10    13 ar  
    30    10    33 1   
    31    11    12 1   
    32    11    14 ar  
    33    14    15 ar  
    34    14    34 1   
    35    15    35 1   
    36    17    36 1   
    37    18    21 ar  
    38    18    37 1   
    39    19    20 ar  
    40    19    38 1   
    41    20    39 1   
    42    23    40 1   
    43    23    41 1   
@<TRIPOS>SUBSTRUCTURE
     1 52K         1 TEMP              0 ****  ****    0 ROOT
