@<TRIPOS>MOLECULE
52K
   41    43     1     0     0
SMALL
No Charge or Current Charge


@<TRIPOS>ATOM
      1 C1           5.0180     0.2850    -0.7190 c6         1 52K       0.123600
      2 C2           4.0310     0.1000     0.4900 c6         1 52K       0.180500
      3 C5           5.4770    -2.0730    -0.8260 c6         1 52K       0.060300
      4 C6           4.2380    -2.2630     0.0750 c2         1 52K       0.593200
      5 C8           4.7650     0.4400     1.8230 c3         1 52K      -0.078100
      6 C11          3.0600     2.4620     0.2240 ca         1 52K      -0.138000
      7 C12          0.4110     1.5080     0.0710 ca         1 52K      -0.025000
      8 C16         -2.1600     1.5160    -0.1550 c          1 52K       0.514600
      9 C18         -3.3030     0.4970    -0.1730 ca         1 52K       0.286500
     10 C21         -4.0410    -1.7260    -0.0590 ca         1 52K       0.351900
     11 C23         -5.3890    -1.3450    -0.2070 ca         1 52K       0.073000
     12 Cl          -6.6740    -2.5510    -0.2230 cl         1 52K      -0.171000
     13 N19         -3.0150    -0.8360    -0.0410 nb         1 52K      -0.673000
     14 C22         -5.6940     0.0170    -0.3430 ca         1 52K      -0.076000
     15 C20         -4.6370     0.9460    -0.3250 ca         1 52K      -0.094000
     16 O17         -2.3550     2.7250    -0.2690 o          1 52K      -0.584100
     17 N15         -0.8970     0.9510     0.0010 ns         1 52K      -0.125000
     18 C10          1.4880     0.6140     0.2340 ca         1 52K      -0.136000
     19 C14          0.6760     2.8910    -0.0150 ca         1 52K      -0.133000
     20 C13          1.9950     3.3610     0.0610 ca         1 52K      -0.090000
     21 C9           2.8260     1.0720     0.3170 ca         1 52K      -0.042300
     22 N4           3.5860    -1.3200     0.6430 n2         1 52K      -0.685900
     23 N7           3.8130    -3.5500     0.2340 nv         1 52K      -1.033200
     24 O3           6.0360    -0.7400    -0.7160 os         1 52K      -0.431000
     25 H1           4.4610     0.2320    -1.6660 h1         1 52K       0.059200
     26 H2           5.5040     1.2700    -0.6720 h1         1 52K       0.059200
     27 H3           6.2530    -2.8040    -0.5620 h1         1 52K       0.059700
     28 H4           5.1890    -2.2480    -1.8720 h1         1 52K       0.059700
     29 H5           5.1850     1.4520     1.8110 hc         1 52K       0.044700
     30 H6           4.0810     0.3790     2.6780 hc         1 52K       0.044700
     31 H7           5.5960    -0.2500     2.0140 hc         1 52K       0.044700
     32 H8           4.0710     2.8570     0.2780 ha         1 52K       0.111000
     33 H9          -3.7720    -2.7760     0.0480 h4         1 52K       0.038100
     34 H10         -6.7240     0.3460    -0.4580 ha         1 52K       0.141000
     35 H11         -4.8480     2.0070    -0.4280 ha         1 52K       0.155000
     36 H12         -0.9190    -0.0580     0.0800 hn         1 52K       0.181000
     37 H13          1.2670    -0.4480     0.2970 ha         1 52K       0.132000
     38 H14         -0.1210     3.6170    -0.1410 ha         1 52K       0.145000
     39 H15          2.1940     4.4290    -0.0070 ha         1 52K       0.113000
     40 H16          2.8720    -3.5980     0.6080 hn         1 52K       0.470500
     41 H17          3.9890    -4.1640    -0.5540 hn         1 52K       0.470500
@<TRIPOS>BOND
     1     1     2 1   
     2     1    24 1   
     3     1    25 1   
     4     1    26 1   
     5     2     5 1   
     6     2    21 1   
     7     2    22 1   
     8     3     4 1   
     9     3    24 1   
    10     3    27 1   
    11     3    28 1   
    12     4    22 2   
    13     4    23 1   
    14     5    29 1   
    15     5    30 1   
    16     5    31 1   
    17     6    20 ar  
    18     6    21 ar  
    19     6    32 1   
    20     7    17 1   
    21     7    18 ar  
    22     7    19 ar  
    23     8     9 1   
    24     8    16 2   
    25     8    17 1   
    26     9    13 ar  
    27     9    15 ar  
    28    10    11 ar  
    29    10    13 ar  
    30    10    33 1   
    31    11    12 1   
    32    11    14 ar  
    33    14    15 ar  
    34    14    34 1   
    35    15    35 1   
    36    17    36 1   
    37    18    21 ar  
    38    18    37 1   
    39    19    20 ar  
    40    19    38 1   
    41    20    39 1   
    42    23    40 1   
    43    23    41 1   
@<TRIPOS>SUBSTRUCTURE
     1 52K         1 TEMP              0 ****  ****    0 ROOT
