@<TRIPOS>MOLECULE
52M
   41    44     1     0     0
SMALL
No Charge or Current Charge


@<TRIPOS>ATOM
      1 S1          -7.1720     0.7560     0.7990 sh         1 52M      -0.450400
      2 C21         -5.5820     0.5960    -0.0340 c          1 52M       0.680700
      3 N1          -4.5190     0.4910     0.8490 ns         1 52M      -0.126000
      4 C17         -3.1170     0.3550     0.6470 ca         1 52M      -0.053000
      5 C18         -2.5100     0.3400    -0.6280 ca         1 52M      -0.101000
      6 C19         -1.1110     0.1970    -0.7680 ca         1 52M      -0.093600
      7 C20         -0.5090     0.1930    -2.1590 c          1 52M       0.706600
      8 O4          -0.9080     1.0300    -2.9560 o          1 52M      -0.690000
      9 O5           0.3010    -0.6770    -2.4460 o          1 52M      -0.690000
     10 C16         -2.3060     0.2370     1.7870 ca         1 52M      -0.183000
     11 C15         -0.9160     0.1050     1.6640 ca         1 52M      -0.094000
     12 C14         -0.3080     0.0770     0.3950 ca         1 52M      -0.086000
     13 C10          1.1530    -0.0250     0.3130 cc         1 52M       0.226000
     14 C9           1.7610    -1.2600     0.5320 cd         1 52M      -0.188800
     15 C4           3.1960    -1.3380     0.4680 cd         1 52M       0.256000
     16 O2           3.9650    -0.2480     0.2010 os         1 52M      -0.302000
     17 C5           3.8300    -2.5330     0.6780 cc         1 52M      -0.400200
     18 C8           0.9620    -2.4350     0.8020 cd         1 52M      -0.060200
     19 C7           1.6330    -3.6240     1.0090 cc         1 52M      -0.328200
     20 C6           3.0930    -3.7550     0.9690 c          1 52M       0.591500
     21 O3           3.6590    -4.8200     1.1630 o          1 52M      -0.609100
     22 C11          2.0070     1.1350     0.0370 ca         1 52M      -0.141000
     23 C3           3.4020     0.9800    -0.0140 ca         1 52M       0.250000
     24 C2           4.2420     2.0730    -0.2760 ca         1 52M      -0.259000
     25 C12          1.4560     2.4180    -0.1730 ca         1 52M       0.016000
     26 C13          2.2980     3.5130    -0.4360 ca         1 52M      -0.188000
     27 C1           3.6860     3.3390    -0.4880 ca         1 52M       0.183100
     28 O1           4.4920     4.4050    -0.7410 oh         1 52M      -0.534100
     29 O6          -5.5090     0.5870    -1.2540 o          1 52M      -0.537100
     30 H1          -7.8210     0.8190    -0.3860 hs         1 52M       0.256800
     31 H2          -4.7940     0.5150     1.8220 hn         1 52M       0.157000
     32 H3          -3.1070     0.4350    -1.5300 ha         1 52M       0.169000
     33 H5          -2.7530     0.2530     2.7790 ha         1 52M       0.096000
     34 H6          -0.3030     0.0250     2.5600 ha         1 52M       0.105000
     35 H7           4.9070    -2.6210     0.6390 ha         1 52M       0.194000
     36 H9          -0.1250    -2.4130     0.8410 ha         1 52M       0.190000
     37 H10          1.0970    -4.5430     1.2180 ha         1 52M       0.184000
     38 H11          5.3170     1.9240    -0.3090 ha         1 52M       0.125000
     39 H12          0.3810     2.5770    -0.1330 ha         1 52M       0.137000
     40 H13          1.8690     4.4980    -0.5980 ha         1 52M       0.127000
     41 H14          5.4220     4.0930    -0.7390 ho         1 52M       0.464000
@<TRIPOS>BOND
     1     1     2 1   
     2     1    30 1   
     3     2     3 1   
     4     2    29 2   
     5     3     4 1   
     6     3    31 1   
     7     4     5 ar  
     8     4    10 ar  
     9     5     6 ar  
    10     5    32 1   
    11     6     7 1   
    12     6    12 ar  
    13     7     8 1   
    14     7     9 1   
    15    10    11 ar  
    16    10    33 1   
    17    11    12 ar  
    18    11    34 1   
    19    12    13 1   
    20    13    14 2   
    21    13    22 1   
    22    14    15 1   
    23    14    18 1   
    24    15    16 1   
    25    15    17 2   
    26    16    23 1   
    27    17    20 1   
    28    17    35 1   
    29    18    19 2   
    30    18    36 1   
    31    19    20 1   
    32    19    37 1   
    33    20    21 2   
    34    22    23 ar  
    35    22    25 ar  
    36    23    24 ar  
    37    24    27 ar  
    38    24    38 1   
    39    25    26 ar  
    40    25    39 1   
    41    26    27 ar  
    42    26    40 1   
    43    27    28 1   
    44    28    41 1   
@<TRIPOS>SUBSTRUCTURE
     1 52M         1 TEMP              0 ****  ****    0 ROOT
