@<TRIPOS>MOLECULE
52M
   41    44     1     0     0
SMALL
bcc


@<TRIPOS>ATOM
      1 S1          -7.0350     0.9530     0.8830 sh         1 52M      -0.450400
      2 C21         -5.4920     0.5860     0.0420 c          1 52M       0.747700
      3 N1          -4.4450     0.6880     0.8920 ns         1 52M      -0.452100
      4 C17         -3.0860     0.4830     0.6220 ca         1 52M       0.039600
      5 C18         -2.5520     0.3210    -0.6520 ca         1 52M      -0.119000
      6 C19         -1.1850     0.1380    -0.8310 ca         1 52M      -0.093600
      7 C20         -0.6240    -0.0400    -2.2340 c          1 52M       0.917200
      8 O4          -1.4300    -0.0160    -3.1790 o          1 52M      -0.795300
      9 O5           0.6110    -0.1940    -2.2940 o          1 52M      -0.795300
     10 C16         -2.2300     0.4560     1.7240 ca         1 52M      -0.201000
     11 C15         -0.8730     0.2700     1.5470 ca         1 52M      -0.112000
     12 C14         -0.3360     0.1100     0.2720 ca         1 52M      -0.086000
     13 C10          1.1320    -0.0550     0.1640 cc         1 52M       0.226000
     14 C9           1.7340    -1.2640     0.4260 cd         1 52M      -0.254100
     15 C4           3.1620    -1.3590     0.4620 cd         1 52M       0.365700
     16 O2           3.9080    -0.2490     0.2720 os         1 52M      -0.390800
     17 C5           3.8180    -2.5280     0.6860 cc         1 52M      -0.350200
     18 C8           1.0100    -2.4820     0.6300 cd         1 52M      -0.010200
     19 C7           1.6390    -3.6550     0.8520 cc         1 52M      -0.278200
     20 C6           3.0960    -3.7570     0.8960 c          1 52M       0.591500
     21 O3           3.6640    -4.8370     1.1010 o          1 52M      -0.609100
     22 C11          1.9570     1.1020     0.0020 ca         1 52M      -0.206300
     23 C3           3.3460     0.9530     0.0610 ca         1 52M       0.425000
     24 C2           4.2110     2.0260    -0.0900 ca         1 52M      -0.342300
     25 C12          1.4540     2.3930    -0.2220 ca         1 52M      -0.002000
     26 C13          2.2880     3.4710    -0.3740 ca         1 52M      -0.206000
     27 C1           3.6800     3.2890    -0.3090 ca         1 52M       0.183100
     28 O1           4.4460     4.3720    -0.4640 oh         1 52M      -0.495100
     29 O6          -5.4410     0.2950    -1.1280 o          1 52M      -0.537100
     30 H1          -7.8150     0.6790    -0.1670 hs         1 52M       0.256800
     31 H2          -4.6560     0.8920     1.8580 hn         1 52M       0.323500
     32 H3          -3.1790     0.3350    -1.5280 ha         1 52M       0.187000
     33 H5          -2.6250     0.5790     2.7260 ha         1 52M       0.114000
     34 H6          -0.2250     0.2530     2.4140 ha         1 52M       0.123000
     35 H7           4.9010    -2.5460     0.7070 ha         1 52M       0.144000
     36 H9          -0.0710    -2.4470     0.5980 ha         1 52M       0.140000
     37 H10          1.0660    -4.5610     1.0020 ha         1 52M       0.134000
     38 H11          5.2820     1.8680    -0.0370 ha         1 52M       0.143000
     39 H12          0.3840     2.5400    -0.2750 ha         1 52M       0.155000
     40 H13          1.8860     4.4610    -0.5470 ha         1 52M       0.145000
     41 H14          5.3820     4.1470    -0.4030 ho         1 52M       0.425000
@<TRIPOS>BOND
     1     1     2 1   
     2     1    30 1   
     3     2     3 1   
     4     2    29 2   
     5     3     4 1   
     6     3    31 1   
     7     4     5 ar  
     8     4    10 ar  
     9     5     6 ar  
    10     5    32 1   
    11     6     7 1   
    12     6    12 ar  
    13     7     8 1   
    14     7     9 1   
    15    10    11 ar  
    16    10    33 1   
    17    11    12 ar  
    18    11    34 1   
    19    12    13 1   
    20    13    14 2   
    21    13    22 1   
    22    14    15 1   
    23    14    18 1   
    24    15    16 1   
    25    15    17 2   
    26    16    23 1   
    27    17    20 1   
    28    17    35 1   
    29    18    19 2   
    30    18    36 1   
    31    19    20 1   
    32    19    37 1   
    33    20    21 2   
    34    22    23 ar  
    35    22    25 ar  
    36    23    24 ar  
    37    24    27 ar  
    38    24    38 1   
    39    25    26 ar  
    40    25    39 1   
    41    26    27 ar  
    42    26    40 1   
    43    27    28 1   
    44    28    41 1   
@<TRIPOS>SUBSTRUCTURE
     1 52M         1 TEMP              0 ****  ****    0 ROOT
