@<TRIPOS>MOLECULE
52P
   37    40     1     0     0
SMALL
No Charge or Current Charge


@<TRIPOS>ATOM
      1 F1          -5.2060     0.2820     3.2970 f          1 52P      -0.161000
      2 C2          -4.7490     0.4860     2.0420 ca         1 52P       0.237000
      3 C3          -4.2210    -0.5870     1.3100 ca         1 52P      -0.186000
      4 C4          -3.7450    -0.3810     0.0040 ca         1 52P       0.000000
      5 C5          -3.7920     0.9090    -0.5650 ca         1 52P      -0.227000
      6 S6          -3.1870     1.1950    -2.2370 ss         1 52P      -0.068300
      7 C7          -1.5930     0.5730    -1.8180 cc         1 52P       0.400300
      8 C8          -0.7870     1.3090    -0.8930 cc         1 52P      -0.109000
      9 C9           0.4610     0.8420    -0.5770 cd         1 52P      -0.068000
     10 C10          0.8500    -0.3720    -1.2410 cd         1 52P       0.008000
     11 C11          2.0820    -0.9710    -1.0170 cc         1 52P      -0.212400
     12 C12          2.9820    -0.3200    -0.0590 ca         1 52P      -0.016800
     13 C13          2.9260    -0.6480     1.3130 ca         1 52P       0.142000
     14 Cl14         1.7650    -1.8370     1.9050 cl         1 52P      -0.186500
     15 C15          3.7920    -0.0280     2.2290 ca         1 52P      -0.105500
     16 C16          4.7260     0.9240     1.7850 ca         1 52P      -0.089000
     17 C17          4.7920     1.2520     0.4200 ca         1 52P      -0.105500
     18 C18          3.9270     0.6330    -0.4980 ca         1 52P       0.142000
     19 Cl19         4.0340     1.0710    -2.2030 cl         1 52P      -0.186500
     20 C20          2.5070    -2.2100    -1.6890 c          1 52P       0.713700
     21 O21          3.5850    -2.7480    -1.5000 o          1 52P      -0.519100
     22 N22          1.5970    -2.7370    -2.5630 nc         1 52P      -0.666100
     23 C23          0.4030    -2.2070    -2.8170 cd         1 52P       0.571700
     24 N24          0.0010    -1.0240    -2.1610 na         1 52P       0.071000
     25 N25         -1.2750    -0.5400    -2.4810 nd         1 52P      -0.468800
     26 C26         -4.3360     1.9750     0.1790 ca         1 52P       0.261000
     27 F27         -4.3930     3.2150    -0.3550 f          1 52P      -0.151000
     28 C28         -4.8100     1.7670     1.4800 ca         1 52P      -0.215000
     29 H3          -4.1850    -1.5780     1.7540 ha         1 52P       0.144000
     30 H4          -3.3480    -1.2230    -0.5610 ha         1 52P       0.135000
     31 H8          -1.1790     2.2180    -0.4510 ha         1 52P       0.147000
     32 H9           1.0900     1.3730     0.1280 ha         1 52P       0.150000
     33 H15          3.7390    -0.2850     3.2840 ha         1 52P       0.134500
     34 H16          5.3960     1.4040     2.4950 ha         1 52P       0.123000
     35 H17          5.5140     1.9870     0.0720 ha         1 52P       0.134500
     36 H23         -0.2910    -2.6560    -3.5160 h5         1 52P       0.068800
     37 H28         -5.2220     2.5940     2.0490 ha         1 52P       0.157000
@<TRIPOS>BOND
     1     1     2 1   
     2     2     3 ar  
     3     2    28 ar  
     4     3     4 ar  
     5     3    29 1   
     6     4     5 ar  
     7     4    30 1   
     8     5     6 1   
     9     5    26 ar  
    10     6     7 1   
    11     7     8 1   
    12     7    25 2   
    13     8     9 2   
    14     8    31 1   
    15     9    10 1   
    16     9    32 1   
    17    10    11 2   
    18    10    24 1   
    19    11    12 1   
    20    11    20 1   
    21    12    13 ar  
    22    12    18 ar  
    23    13    14 1   
    24    13    15 ar  
    25    15    16 ar  
    26    15    33 1   
    27    16    17 ar  
    28    16    34 1   
    29    17    18 ar  
    30    17    35 1   
    31    18    19 1   
    32    20    21 2   
    33    20    22 1   
    34    22    23 2   
    35    23    24 1   
    36    23    36 1   
    37    24    25 1   
    38    26    27 1   
    39    26    28 ar  
    40    28    37 1   
@<TRIPOS>SUBSTRUCTURE
     1 52P         1 TEMP              0 ****  ****    0 ROOT
