@<TRIPOS>MOLECULE
52P
   37    40     1     0     0
SMALL
bcc


@<TRIPOS>ATOM
      1 F1          -6.9960    -1.9700    -0.1700 f          1 52P      -0.125900
      2 C2          -6.0590    -1.0210    -0.2100 ca         1 52P       0.201900
      3 C3          -5.8080    -0.3770    -1.4070 ca         1 52P      -0.204000
      4 C4          -4.8270     0.6020    -1.4330 ca         1 52P      -0.018000
      5 C5          -4.1200     0.9330    -0.2830 ca         1 52P      -0.100100
      6 S6          -2.9380     2.2340    -0.3070 ss         1 52P      -0.195200
      7 C7          -1.4230     1.3550    -0.1990 cc         1 52P       0.465600
      8 C8          -0.2220     2.1470    -0.2650 cc         1 52P      -0.192300
      9 C9           0.9590     1.5160    -0.1930 cd         1 52P      -0.086000
     10 C10          0.9970     0.0890    -0.0430 cd         1 52P       0.058700
     11 C11          2.1280    -0.6690     0.0510 cc         1 52P      -0.212400
     12 C12          3.4640    -0.0530     0.0080 ca         1 52P      -0.016800
     13 C13          4.0320     0.5550     1.1250 ca         1 52P       0.050400
     14 CL14         3.1260     0.6140     2.5970 cl         1 52P      -0.094900
     15 C15          5.2980     1.1180     1.0950 ca         1 52P      -0.123500
     16 C16          6.0260     1.0700    -0.0820 ca         1 52P      -0.107000
     17 C17          5.4990     0.4720    -1.2160 ca         1 52P      -0.123500
     18 C18          4.2310    -0.0800    -1.1560 ca         1 52P       0.050400
     19 CL19         3.5660    -0.8130    -2.5720 cl         1 52P      -0.094900
     20 C20          2.0370    -2.1030     0.2030 c          1 52P       0.713700
     21 O21          3.0150    -2.8290     0.2960 o          1 52P      -0.519100
     22 N22          0.7580    -2.6440     0.2470 nc         1 52P      -0.666100
     23 C23         -0.2710    -1.8920     0.1550 cd         1 52P       0.571700
     24 N24         -0.2270    -0.5370     0.0110 na         1 52P       0.020300
     25 N25         -1.4240     0.0820    -0.0700 nd         1 52P      -0.468800
     26 C26         -4.4150     0.2610     0.8950 ca         1 52P       0.225900
     27 F27         -3.7450     0.5710     2.0020 f          1 52P      -0.115900
     28 C28         -5.3770    -0.7260     0.9560 ca         1 52P      -0.233000
     29 H3          -6.3610    -0.6330    -2.3000 ha         1 52P       0.162000
     30 H4          -4.6090     1.1170    -2.3580 ha         1 52P       0.153000
     31 H8          -0.2830     3.2210    -0.3780 ha         1 52P       0.165000
     32 H9           1.8900     2.0620    -0.2540 ha         1 52P       0.168000
     33 H15          5.7090     1.5850     1.9790 ha         1 52P       0.152500
     34 H16          7.0140     1.5070    -0.1180 ha         1 52P       0.141000
     35 H17          6.0680     0.4390    -2.1350 ha         1 52P       0.152500
     36 H23         -1.2740    -2.3010     0.1890 h5         1 52P       0.068800
     37 H28         -5.5880    -1.2450     1.8820 ha         1 52P       0.175000
@<TRIPOS>BOND
     1     1     2 1   
     2     2     3 ar  
     3     2    28 ar  
     4     3     4 ar  
     5     3    29 1   
     6     4     5 ar  
     7     4    30 1   
     8     5     6 1   
     9     5    26 ar  
    10     6     7 1   
    11     7     8 1   
    12     7    25 2   
    13     8     9 2   
    14     8    31 1   
    15     9    10 1   
    16     9    32 1   
    17    10    11 2   
    18    10    24 1   
    19    11    12 1   
    20    11    20 1   
    21    12    13 ar  
    22    12    18 ar  
    23    13    14 1   
    24    13    15 ar  
    25    15    16 ar  
    26    15    33 1   
    27    16    17 ar  
    28    16    34 1   
    29    17    18 ar  
    30    17    35 1   
    31    18    19 1   
    32    20    21 2   
    33    20    22 1   
    34    22    23 2   
    35    23    24 1   
    36    23    36 1   
    37    24    25 1   
    38    26    27 1   
    39    26    28 ar  
    40    28    37 1   
@<TRIPOS>SUBSTRUCTURE
     1 52P         1 TEMP              0 ****  ****    0 ROOT
