@<TRIPOS>MOLECULE
52Q
   29    31     1     0     0
SMALL
No Charge or Current Charge


@<TRIPOS>ATOM
      1 C7           1.1670    -0.5900     0.8140 cx         1 52Q      -0.120700
      2 C6           2.0620    -1.0010    -0.3540 cx         1 52Q      -0.225700
      3 C1          -4.4270     0.4580     0.2310 cc         1 52Q       0.389400
      4 C5          -0.1400     0.7710    -0.7570 c5         1 52Q      -0.049400
      5 C4           0.9180     2.7560     0.4300 c          1 52Q       0.699000
      6 C3           3.2460    -1.9020    -0.0760 c          1 52Q       0.736000
      7 C2          -2.8140    -0.8900    -0.0540 cd         1 52Q       0.652300
      8 C8           2.0920     0.4220     0.1950 cx         1 52Q      -0.054700
      9 C9          -0.2780    -0.1490     0.5020 c5         1 52Q       0.131300
     10 C10          1.2350     1.5030    -0.5310 c5         1 52Q       0.047200
     11 N11         -4.8160    -0.6130    -0.5350 na         1 52Q      -0.219700
     12 N12         -3.7880    -1.4930    -0.7150 nc         1 52Q      -0.550800
     13 N13         -3.1590     0.2950     0.5580 nd         1 52Q      -0.665000
     14 N14          1.8650     1.8730    -1.8430 n8         1 52Q      -0.976200
     15 O15          3.0340    -2.9920     0.4330 o          1 52Q      -0.756500
     16 O16          0.5730     3.8150    -0.0810 o          1 52Q      -0.745000
     17 O17          4.3550    -1.5220    -0.4200 o          1 52Q      -0.756500
     18 O18          1.1170     2.6780     1.6350 o          1 52Q      -0.745000
     19 S19         -1.2390    -1.6860     0.0530 ss         1 52Q      -0.368300
     20 H1           1.4060    -0.9790     1.8010 hc         1 52Q       0.094700
     21 H2           1.6040    -1.1720    -1.3220 hc         1 52Q       0.070700
     22 H4          -0.1410     0.1860    -1.6840 hc         1 52Q       0.035700
     23 H5          -0.9760     1.4730    -0.8460 hc         1 52Q       0.035700
     24 H6           2.9700     0.7300     0.7600 hc         1 52Q       0.094700
     25 H7          -0.7260     0.3780     1.3560 h1         1 52Q       0.098700
     26 H8          -5.7450    -0.7600    -0.9220 hn         1 52Q       0.351000
     27 H9           1.3420     2.6660    -2.2310 hn         1 52Q       0.376000
     28 H10          2.7920     2.2740    -1.6620 hn         1 52Q       0.376000
     29 H3          -5.0850     1.2740     0.5060 h5         1 52Q       0.043100
@<TRIPOS>BOND
     1     1     2 1   
     2     1     8 1   
     3     1     9 1   
     4     1    20 1   
     5     2     6 1   
     6     2     8 1   
     7     2    21 1   
     8     3    11 1   
     9     3    13 2   
    10     3    29 1   
    11     4     9 1   
    12     4    10 1   
    13     4    22 1   
    14     4    23 1   
    15     5    10 1   
    16     5    16 1   
    17     5    18 1   
    18     6    15 1   
    19     6    17 1   
    20     7    12 2   
    21     7    13 1   
    22     7    19 1   
    23     8    10 1   
    24     8    24 1   
    25     9    19 1   
    26     9    25 1   
    27    10    14 1   
    28    11    12 1   
    29    11    26 1   
    30    14    27 1   
    31    14    28 1   
@<TRIPOS>SUBSTRUCTURE
     1 52Q         1 TEMP              0 ****  ****    0 ROOT
