@<TRIPOS>MOLECULE
52Q
   29    31     1     0     0
SMALL
abcg2


@<TRIPOS>ATOM
      1 C7           1.1790    -0.4970     0.8230 cx         1 52Q      -0.120700
      2 C6           2.0230    -0.9600    -0.3380 cx         1 52Q      -0.225700
      3 C1          -4.5060     0.3570     0.3490 cc         1 52Q       0.389400
      4 C5          -0.1470     0.8200    -0.7040 c5         1 52Q      -0.049400
      5 C4           1.1070     2.7840     0.2300 c          1 52Q       0.699000
      6 C3           3.2040    -1.8600    -0.0420 c          1 52Q       0.736000
      7 C2          -2.8450    -0.8770     0.0940 cd         1 52Q       0.652300
      8 C8           2.0750     0.4680     0.1360 cx         1 52Q      -0.054700
      9 C9          -0.2390    -0.0890     0.5220 c5         1 52Q       0.131300
     10 C10          1.2470     1.4900    -0.6210 c5         1 52Q       0.047200
     11 N11         -4.8220    -0.6490    -0.4620 na         1 52Q      -0.219700
     12 N12         -3.7670    -1.4470    -0.6500 nc         1 52Q      -0.550800
     13 N13         -3.2540     0.2420     0.7330 nd         1 52Q      -0.665000
     14 N14          1.7820     1.7110    -1.9580 n8         1 52Q      -0.976200
     15 O15          3.4770    -2.7200    -0.9050 o          1 52Q      -0.756500
     16 O16          1.2000     3.8760    -0.3670 o          1 52Q      -0.745000
     17 O17          3.8120    -1.6730     1.0330 o          1 52Q      -0.756500
     18 O18          0.8720     2.6270     1.4460 o          1 52Q      -0.745000
     19 S19         -1.2550    -1.5850     0.2600 ss         1 52Q      -0.368300
     20 H1           1.4130    -0.8780     1.8100 hc         1 52Q       0.094700
     21 H2           1.5200    -1.1590    -1.2790 hc         1 52Q       0.070700
     22 H4          -0.1920     0.2290    -1.6210 hc         1 52Q       0.035700
     23 H5          -0.9710     1.5340    -0.7450 hc         1 52Q       0.035700
     24 H6           2.9920     0.7940     0.6140 hc         1 52Q       0.094700
     25 H7          -0.6530     0.4470     1.3740 h1         1 52Q       0.098700
     26 H8          -5.7010    -0.8340    -0.9210 hn         1 52Q       0.351000
     27 H9           1.3360     2.5400    -2.3340 hn         1 52Q       0.376000
     28 H10          2.7560     1.9800    -1.8690 hn         1 52Q       0.376000
     29 H3          -5.1990     1.1330     0.6330 h5         1 52Q       0.043100
@<TRIPOS>BOND
     1     1     2 1   
     2     1     8 1   
     3     1     9 1   
     4     1    20 1   
     5     2     6 1   
     6     2     8 1   
     7     2    21 1   
     8     3    11 1   
     9     3    13 2   
    10     3    29 1   
    11     4     9 1   
    12     4    10 1   
    13     4    22 1   
    14     4    23 1   
    15     5    10 1   
    16     5    16 1   
    17     5    18 1   
    18     6    15 1   
    19     6    17 1   
    20     7    12 2   
    21     7    13 1   
    22     7    19 1   
    23     8    10 1   
    24     8    24 1   
    25     9    19 1   
    26     9    25 1   
    27    10    14 1   
    28    11    12 1   
    29    11    26 1   
    30    14    27 1   
    31    14    28 1   
@<TRIPOS>SUBSTRUCTURE
     1 52Q         1 TEMP              0 ****  ****    0 ROOT
