@<TRIPOS>MOLECULE
52R
   48    52     1     0     0
SMALL
abcg2


@<TRIPOS>ATOM
      1 C1         -18.0220    30.2770    11.8010 cc         1 52R      -0.148000
      2 C2         -19.3310    30.6650    11.9630 cd         1 52R      -0.258000
      3 C3         -19.8860    29.6460    12.7710 cd         1 52R       0.496900
      4 N6         -25.2350    30.4910    12.0840 nc         1 52R      -0.348700
      5 C7         -23.4370    32.9910    13.8200 cc         1 52R       0.808400
      6 C8         -23.2810    30.7590    12.9280 cd         1 52R      -0.064000
      7 C9         -25.2230    31.6760    12.6060 cd         1 52R       0.319700
      8 C10        -23.6430    35.2960    14.5620 c3         1 52R       0.296100
      9 C11        -22.6830    36.0020    13.6380 ca         1 52R      -0.105300
     10 C12        -23.1030    36.4920    12.4030 ca         1 52R       0.135000
     11 C13        -22.2640    37.1390    11.5210 ca         1 52R      -0.117000
     12 C14        -20.9230    37.3240    11.8510 ca         1 52R      -0.104000
     13 C15        -20.4940    36.8480    13.0750 ca         1 52R       0.111100
     14 C16        -21.3520    36.1990    13.9560 ca         1 52R      -0.109300
     15 F          -24.3990    36.3280    12.0640 f          1 52R      -0.191000
     16 O          -19.2320    36.9490    13.5430 os         1 52R      -0.329100
     17 C18        -19.1360    36.1280    14.7210 c5         1 52R       0.148600
     18 C17        -20.5720    35.8640    15.1930 c5         1 52R      -0.062100
     19 N7         -24.1930    34.0800    13.9980 nu         1 52R      -0.935100
     20 N3         -22.2180    32.9220    14.2560 nd         1 52R      -0.776000
     21 C6         -21.5010    31.7850    14.0750 cc         1 52R       0.347900
     22 N4         -23.9950    31.9110    13.1660 na         1 52R      -0.231300
     23 N5         -24.0300    29.9050    12.2750 nc         1 52R      -0.085000
     24 C5         -21.9460    30.6830    13.4110 cd         1 52R       0.220000
     25 N2         -21.1980    29.5190    13.1900 nh         1 52R      -0.758100
     26 C4         -21.5540    28.3480    13.9700 c3         1 52R       0.217100
     27 N1         -18.9850    28.7270    13.0710 nc         1 52R      -0.579800
     28 N          -17.8590    29.1240    12.4640 na         1 52R       0.124800
     29 C          -16.6610    28.3370    12.5910 c3         1 52R       0.079900
     30 H1         -17.2130    30.7400    11.2590 h4         1 52R       0.150000
     31 H2         -19.8100    31.5420    11.5640 ha         1 52R       0.151000
     32 H3         -26.0460    32.3720    12.6100 h5         1 52R       0.073800
     33 H4         -23.1470    35.0630    15.5020 h1         1 52R       0.070700
     34 H5         -24.4890    35.9400    14.8030 h1         1 52R       0.070700
     35 H6         -22.6490    37.4980    10.5750 ha         1 52R       0.136000
     36 H7         -20.2510    37.8240    11.1670 ha         1 52R       0.137000
     37 H8         -18.6330    35.1950    14.4530 h1         1 52R       0.060700
     38 H9         -20.8570    36.5150    16.0230 hc         1 52R       0.075200
     39 H10        -25.0920    34.1440    13.5510 hn         1 52R       0.508000
     40 H11        -20.4950    31.8040    14.4790 h4         1 52R       0.034100
     41 H12        -22.6340    28.3110    14.0860 h1         1 52R       0.044700
     42 H13        -21.2400    27.4430    13.4530 h1         1 52R       0.044700
     43 H14        -21.0980    28.3540    14.9650 h1         1 52R       0.044700
     44 H15        -16.8190    27.3330    12.1990 h1         1 52R       0.053033
     45 H16        -15.8660    28.8130    12.0240 h1         1 52R       0.053033
     46 H17        -16.3550    28.2650    13.6340 h1         1 52R       0.053033
     47 H18        -18.5260    36.6510    15.4550 h1         1 52R       0.060700
     48 H19        -20.7120    34.8330    15.5160 hc         1 52R       0.075200
@<TRIPOS>BOND
     1     1     2 2   
     2     1    28 1   
     3     1    30 1   
     4     2     3 1   
     5     2    31 1   
     6     3    25 1   
     7     3    27 2   
     8     4     7 2   
     9     4    23 1   
    10     5    19 1   
    11     5    20 2   
    12     5    22 1   
    13     6    22 1   
    14     6    23 2   
    15     6    24 1   
    16     7    22 1   
    17     7    32 1   
    18     8     9 1   
    19     8    19 1   
    20     8    33 1   
    21     8    34 1   
    22     9    10 ar  
    23     9    14 ar  
    24    10    11 ar  
    25    10    15 1   
    26    11    12 ar  
    27    11    35 1   
    28    12    13 ar  
    29    12    36 1   
    30    13    14 ar  
    31    13    16 1   
    32    14    18 1   
    33    16    17 1   
    34    17    18 1   
    35    17    37 1   
    36    17    47 1   
    37    18    38 1   
    38    18    48 1   
    39    19    39 1   
    40    20    21 1   
    41    21    24 2   
    42    21    40 1   
    43    24    25 1   
    44    25    26 1   
    45    26    41 1   
    46    26    42 1   
    47    26    43 1   
    48    27    28 1   
    49    28    29 1   
    50    29    44 1   
    51    29    45 1   
    52    29    46 1   
@<TRIPOS>SUBSTRUCTURE
     1 52R         1 TEMP              0 ****  ****    0 ROOT
