@<TRIPOS>MOLECULE
52R
   48    52     1     0     0
SMALL
No Charge or Current Charge


@<TRIPOS>ATOM
      1 C1         -17.4650    28.6460    14.0660 cc         1 52R      -0.148000
      2 C2         -18.5620    29.3670    13.6890 cd         1 52R      -0.258000
      3 C3         -19.6620    28.4910    13.7260 cd         1 52R       0.496900
      4 N6         -23.4140    31.1360    10.5440 nc         1 52R      -0.348700
      5 C7         -22.1970    32.9070    13.3560 cc         1 52R       0.808400
      6 C8         -22.2200    30.7130    12.3090 cd         1 52R      -0.064000
      7 C9         -23.3240    32.2690    11.2390 cd         1 52R       0.319700
      8 C10        -22.2110    35.1950    14.4060 c3         1 52R       0.296100
      9 C11        -22.6830    36.5800    13.9820 ca         1 52R      -0.105300
     10 C12        -23.8770    37.1390    14.4960 ca         1 52R       0.135000
     11 C13        -24.2990    38.4280    14.1060 ca         1 52R      -0.117000
     12 C14        -23.5310    39.1770    13.1920 ca         1 52R      -0.104000
     13 C15        -22.3580    38.6070    12.6830 ca         1 52R       0.111100
     14 C16        -21.9380    37.3520    13.0650 ca         1 52R      -0.109300
     15 F          -24.6330    36.4430    15.3750 f          1 52R      -0.191000
     16 O          -21.5220    39.2330    11.8030 os         1 52R      -0.329100
     17 C18        -20.5980    38.1850    11.3540 c5         1 52R       0.148600
     18 C17        -20.6390    37.0110    12.4010 c5         1 52R      -0.062100
     19 N7         -22.5620    34.2120    13.3740 nu         1 52R      -0.935100
     20 N3         -21.4370    32.4240    14.3320 nd         1 52R      -0.776000
     21 C6         -21.0660    31.1330    14.3210 cc         1 52R       0.347900
     22 N4         -22.5750    32.0260    12.3540 na         1 52R      -0.231300
     23 N5         -22.7060    30.1460    11.2210 nc         1 52R      -0.085000
     24 C5         -21.3950    30.1730    13.3560 cd         1 52R       0.220000
     25 N2         -20.9790    28.8200    13.3950 nh         1 52R      -0.758100
     26 C4         -21.9610    27.7440    13.1040 c3         1 52R       0.217100
     27 N1         -19.3410    27.2690    14.0840 nc         1 52R      -0.579800
     28 N          -17.9790    27.3710    14.3000 na         1 52R       0.124800
     29 C          -17.2130    26.1910    14.7300 c3         1 52R       0.079900
     30 H1         -16.4190    28.9050    14.1750 h4         1 52R       0.150000
     31 H2         -18.5710    30.4110    13.4000 ha         1 52R       0.151000
     32 H3         -23.7530    33.2320    10.9910 h5         1 52R       0.073800
     33 H4         -21.1230    35.2160    14.5590 h1         1 52R       0.070700
     34 H5         -22.6650    34.9170    15.3670 h1         1 52R       0.070700
     35 H6         -25.2170    38.8420    14.5140 ha         1 52R       0.136000
     36 H7         -23.8400    40.1730    12.8840 ha         1 52R       0.137000
     37 H8         -20.9450    37.8300    10.3730 h1         1 52R       0.060700
     38 H9         -19.7940    37.0560    13.0960 hc         1 52R       0.075200
     39 H10        -23.1990    34.4980    12.6400 hn         1 52R       0.508000
     40 H11        -20.4590    30.8860    15.1820 h4         1 52R       0.034100
     41 H12        -22.9830    28.1410    13.0560 h1         1 52R       0.044700
     42 H13        -21.7290    27.2650    12.1430 h1         1 52R       0.044700
     43 H14        -21.9470    26.9750    13.8890 h1         1 52R       0.044700
     44 H15        -17.2770    25.4130    13.9600 h1         1 52R       0.053033
     45 H16        -16.1620    26.4660    14.8800 h1         1 52R       0.053033
     46 H17        -17.6250    25.8090    15.6710 h1         1 52R       0.053033
     47 H18        -19.5920    38.6040    11.2250 h1         1 52R       0.060700
     48 H19        -20.6360    36.0270    11.9180 hc         1 52R       0.075200
@<TRIPOS>BOND
     1     1     2 2   
     2     1    28 1   
     3     1    30 1   
     4     2     3 1   
     5     2    31 1   
     6     3    25 1   
     7     3    27 2   
     8     4     7 2   
     9     4    23 1   
    10     5    19 1   
    11     5    20 2   
    12     5    22 1   
    13     6    22 1   
    14     6    23 2   
    15     6    24 1   
    16     7    22 1   
    17     7    32 1   
    18     8     9 1   
    19     8    19 1   
    20     8    33 1   
    21     8    34 1   
    22     9    10 ar  
    23     9    14 ar  
    24    10    11 ar  
    25    10    15 1   
    26    11    12 ar  
    27    11    35 1   
    28    12    13 ar  
    29    12    36 1   
    30    13    14 ar  
    31    13    16 1   
    32    14    18 1   
    33    16    17 1   
    34    17    18 1   
    35    17    37 1   
    36    17    47 1   
    37    18    38 1   
    38    18    48 1   
    39    19    39 1   
    40    20    21 1   
    41    21    24 2   
    42    21    40 1   
    43    24    25 1   
    44    25    26 1   
    45    26    41 1   
    46    26    42 1   
    47    26    43 1   
    48    27    28 1   
    49    28    29 1   
    50    29    44 1   
    51    29    45 1   
    52    29    46 1   
@<TRIPOS>SUBSTRUCTURE
     1 52R         1 TEMP              0 ****  ****    0 ROOT
