@<TRIPOS>MOLECULE
52T
   53    55     1     0     0
SMALL
No Charge or Current Charge


@<TRIPOS>ATOM
      1 C8          25.3160    21.1820    15.4730 c3         1 52T       0.137900
      2 C5          25.1040    19.6870    15.2210 ca         1 52T      -0.157300
      3 C6          26.1940    18.7960    15.1320 ca         1 52T      -0.057000
      4 C7          25.9770    17.4240    14.9110 ca         1 52T      -0.171500
      5 C2          24.6630    16.9290    14.7720 ca         1 52T       0.145100
      6 C3          23.5800    17.8170    14.8530 ca         1 52T      -0.171500
      7 C4          23.7950    19.1880    15.0740 ca         1 52T      -0.057000
      8 O4          24.3890    15.5940    14.5550 os         1 52T      -0.349100
      9 C1          25.4280    14.6030    14.4580 c3         1 52T       0.147900
     10 N1          26.4370    21.5100    16.3770 na         1 52T       0.137800
     11 C11         26.4780    21.4610    17.7550 cc         1 52T      -0.145300
     12 C12         27.7520    21.8610    18.0500 cd         1 52T       0.187300
     13 N3          28.4230    22.1580    16.8790 nd         1 52T      -0.330000
     14 N2          27.6280    21.9440    15.8650 nc         1 52T      -0.212800
     15 C13         28.3010    21.9940    19.4650 c6         1 52T       0.179000
     16 C10         25.4240    21.0670    18.7680 c6         1 52T       0.254300
     17 C14         27.3400    21.3310    20.4960 c6         1 52T      -0.097400
     18 C15         25.8490    21.6180    20.1630 c6         1 52T      -0.094400
     19 O1          24.1650    21.6360    18.4220 oh         1 52T      -0.665000
     20 C9          25.2610    19.5240    18.7950 c3         1 52T      -0.120100
     21 O2          29.6150    21.3940    19.5350 os         1 52T      -0.460100
     22 C16         30.4310    21.6270    20.5980 c          1 52T       0.641100
     23 O3          30.1990    22.3850    21.5260 o          1 52T      -0.551000
     24 N4          31.5810    20.9090    20.4350 ns         1 52T      -0.501900
     25 C17         32.7010    20.9010    21.3730 c3         1 52T       0.124700
     26 C19         34.0100    20.5640    20.6360 c3         1 52T      -0.107100
     27 C18         32.4260    19.9360    22.5440 c3         1 52T      -0.107100
     28 H1          25.4960    21.6760    14.5110 h1         1 52T       0.085700
     29 H2          24.4010    21.6220    15.8860 h1         1 52T       0.085700
     30 H3          27.2150    19.1590    15.2330 ha         1 52T       0.123000
     31 H4          26.8380    16.7650    14.8500 ha         1 52T       0.126000
     32 H5          22.5660    17.4400    14.7450 ha         1 52T       0.126000
     33 H6          22.9410    19.8600    15.1370 ha         1 52T       0.123000
     34 H7          24.9920    13.6110    14.2860 h1         1 52T       0.044033
     35 H8          26.1040    14.8270    13.6230 h1         1 52T       0.044033
     36 H9          26.0140    14.5610    15.3850 h1         1 52T       0.044033
     37 H10         28.3860    23.0670    19.6900 h1         1 52T       0.089700
     38 H11         27.5140    20.2460    20.5210 hc         1 52T       0.061700
     39 H12         27.5650    21.7010    21.5040 hc         1 52T       0.061700
     40 H13         25.6870    22.7060    20.1920 hc         1 52T       0.057200
     41 H14         25.2060    21.1980    20.9490 hc         1 52T       0.057200
     42 H15         23.5340    21.3590    19.1190 ho         1 52T       0.449000
     43 H16         24.5920    19.2040    19.6030 hc         1 52T       0.052367
     44 H17         24.8390    19.1460    17.8580 hc         1 52T       0.052367
     45 H18         26.2230    19.0200    18.9430 hc         1 52T       0.052367
     46 H19         31.6300    20.3370    19.6030 hn         1 52T       0.324500
     47 H20         32.8040    21.9140    21.7880 h1         1 52T       0.082700
     48 H21         34.8610    20.6010    21.3260 hc         1 52T       0.042533
     49 H22         33.9660    19.5600    20.1970 hc         1 52T       0.042533
     50 H23         34.1950    21.2850    19.8310 hc         1 52T       0.042533
     51 H24         33.2560    19.9530    23.2600 hc         1 52T       0.042533
     52 H25         31.5120    20.2230    23.0770 hc         1 52T       0.042533
     53 H26         32.3040    18.9080    22.1820 hc         1 52T       0.042533
@<TRIPOS>BOND
     1     1     2 1   
     2     1    10 1   
     3     1    28 1   
     4     1    29 1   
     5     2     3 ar  
     6     2     7 ar  
     7     3     4 ar  
     8     3    30 1   
     9     4     5 ar  
    10     4    31 1   
    11     5     6 ar  
    12     5     8 1   
    13     6     7 ar  
    14     6    32 1   
    15     7    33 1   
    16     8     9 1   
    17     9    34 1   
    18     9    35 1   
    19     9    36 1   
    20    10    11 1   
    21    10    14 1   
    22    11    12 2   
    23    11    16 1   
    24    12    13 1   
    25    12    15 1   
    26    13    14 2   
    27    15    17 1   
    28    15    21 1   
    29    15    37 1   
    30    16    18 1   
    31    16    19 1   
    32    16    20 1   
    33    17    18 1   
    34    17    38 1   
    35    17    39 1   
    36    18    40 1   
    37    18    41 1   
    38    19    42 1   
    39    20    43 1   
    40    20    44 1   
    41    20    45 1   
    42    21    22 1   
    43    22    23 2   
    44    22    24 1   
    45    24    25 1   
    46    24    46 1   
    47    25    26 1   
    48    25    27 1   
    49    25    47 1   
    50    26    48 1   
    51    26    49 1   
    52    26    50 1   
    53    27    51 1   
    54    27    52 1   
    55    27    53 1   
@<TRIPOS>SUBSTRUCTURE
     1 52T         1 TEMP              0 ****  ****    0 ROOT
