@<TRIPOS>MOLECULE
52T
   53    55     1     0     0
SMALL
abcg2


@<TRIPOS>ATOM
      1 C8          25.4740    21.1860    15.4120 c3         1 52T       0.137900
      2 C5          25.1970    19.7150    15.2210 ca         1 52T      -0.157300
      3 C6          26.2290    18.7920    15.1030 ca         1 52T      -0.057000
      4 C7          25.9720    17.4360    14.9310 ca         1 52T      -0.171500
      5 C2          24.6510    16.9870    14.8680 ca         1 52T       0.145100
      6 C3          23.6060    17.9080    14.9770 ca         1 52T      -0.171500
      7 C4          23.8820    19.2540    15.1550 ca         1 52T      -0.057000
      8 O4          24.2910    15.6860    14.7080 os         1 52T      -0.349100
      9 C1          25.3250    14.7090    14.5850 c3         1 52T       0.147900
     10 N1          26.5320    21.4410    16.3870 na         1 52T       0.137800
     11 C11         26.5150    21.3690    17.7390 cc         1 52T      -0.145300
     12 C12         27.8060    21.6690    18.1110 cd         1 52T       0.187300
     13 N3          28.5370    21.9090    16.9940 nd         1 52T      -0.330000
     14 N2          27.7650    21.7650    15.9510 nc         1 52T      -0.212800
     15 C13         28.2770    21.7860    19.5190 c6         1 52T       0.179000
     16 C10         25.3870    21.0580    18.6780 c6         1 52T       0.254300
     17 C14         27.2180    21.2270    20.4740 c6         1 52T      -0.097400
     18 C15         25.8000    21.6220    20.0550 c6         1 52T      -0.094400
     19 O1          24.2270    21.7520    18.1940 oh         1 52T      -0.665000
     20 C9          25.1030    19.5540    18.7520 c3         1 52T      -0.120100
     21 O2          29.5090    21.0410    19.6450 os         1 52T      -0.460100
     22 C16         30.4070    21.4780    20.5690 c          1 52T       0.641100
     23 O3          30.2460    22.4810    21.2490 o          1 52T      -0.551000
     24 N4          31.4680    20.6550    20.6120 ns         1 52T      -0.501900
     25 C17         32.6270    20.8590    21.4770 c3         1 52T       0.124700
     26 C19         33.8800    21.1010    20.6380 c3         1 52T      -0.107100
     27 C18         32.7930    19.6760    22.4280 c3         1 52T      -0.107100
     28 H1          25.8170    21.6500    14.4870 h1         1 52T       0.085700
     29 H2          24.5780    21.7010    15.7470 h1         1 52T       0.085700
     30 H3          27.2590    19.1250    15.1580 ha         1 52T       0.123000
     31 H4          26.7980    16.7450    14.8510 ha         1 52T       0.126000
     32 H5          22.5850    17.5520    14.9330 ha         1 52T       0.126000
     33 H6          23.0620    19.9550    15.2590 ha         1 52T       0.123000
     34 H7          24.8190    13.7550    14.4630 h1         1 52T       0.044033
     35 H8          25.9500    14.9070    13.7110 h1         1 52T       0.044033
     36 H9          25.9490    14.6820    15.4810 h1         1 52T       0.044033
     37 H10         28.4930    22.8280    19.7580 h1         1 52T       0.089700
     38 H11         27.3180    20.1390    20.4850 hc         1 52T       0.061700
     39 H12         27.4220    21.5820    21.4840 hc         1 52T       0.061700
     40 H13         25.7190    22.7110    20.0010 hc         1 52T       0.057200
     41 H14         25.0820    21.2770    20.8010 hc         1 52T       0.057200
     42 H15         23.4700    21.4740    18.7270 ho         1 52T       0.449000
     43 H16         24.2870    19.3780    19.4570 hc         1 52T       0.052367
     44 H17         24.8150    19.1690    17.7760 hc         1 52T       0.052367
     45 H18         25.9800    19.0060    19.0960 hc         1 52T       0.052367
     46 H19         31.4710    19.8670    19.9820 hn         1 52T       0.324500
     47 H20         32.4070    21.7550    22.0570 h1         1 52T       0.082700
     48 H21         34.7410    21.2730    21.2850 hc         1 52T       0.042533
     49 H22         34.0940    20.2330    20.0100 hc         1 52T       0.042533
     50 H23         33.7510    21.9710    19.9920 hc         1 52T       0.042533
     51 H24         33.6450    19.8410    23.0900 hc         1 52T       0.042533
     52 H25         31.8990    19.5420    23.0380 hc         1 52T       0.042533
     53 H26         32.9710    18.7550    21.8670 hc         1 52T       0.042533
@<TRIPOS>BOND
     1     1     2 1   
     2     1    10 1   
     3     1    28 1   
     4     1    29 1   
     5     2     3 ar  
     6     2     7 ar  
     7     3     4 ar  
     8     3    30 1   
     9     4     5 ar  
    10     4    31 1   
    11     5     6 ar  
    12     5     8 1   
    13     6     7 ar  
    14     6    32 1   
    15     7    33 1   
    16     8     9 1   
    17     9    34 1   
    18     9    35 1   
    19     9    36 1   
    20    10    11 1   
    21    10    14 1   
    22    11    12 2   
    23    11    16 1   
    24    12    13 1   
    25    12    15 1   
    26    13    14 2   
    27    15    17 1   
    28    15    21 1   
    29    15    37 1   
    30    16    18 1   
    31    16    19 1   
    32    16    20 1   
    33    17    18 1   
    34    17    38 1   
    35    17    39 1   
    36    18    40 1   
    37    18    41 1   
    38    19    42 1   
    39    20    43 1   
    40    20    44 1   
    41    20    45 1   
    42    21    22 1   
    43    22    23 2   
    44    22    24 1   
    45    24    25 1   
    46    24    46 1   
    47    25    26 1   
    48    25    27 1   
    49    25    47 1   
    50    26    48 1   
    51    26    49 1   
    52    26    50 1   
    53    27    51 1   
    54    27    52 1   
    55    27    53 1   
@<TRIPOS>SUBSTRUCTURE
     1 52T         1 TEMP              0 ****  ****    0 ROOT
