@<TRIPOS>MOLECULE
52U
   80    83     1     0     0
SMALL
No Charge or Current Charge


@<TRIPOS>ATOM
      1 C7         -17.5680     1.9070    -6.9590 ca         1 52U      -0.193000
      2 C6         -16.9710     1.5840    -5.7290 ca         1 52U       0.023500
      3 C5         -17.4090     0.4570    -5.0060 ca         1 52U      -0.360500
      4 C4         -18.4360    -0.3540    -5.5270 ca         1 52U       0.023500
      5 C3         -19.0280    -0.0260    -6.7570 ca         1 52U      -0.193000
      6 C17        -19.5410     0.3250    -0.7870 c3         1 52U       0.156300
      7 C19        -18.8420    -0.8530    -0.0370 c3         1 52U       0.097700
      8 C31        -17.5650    -1.6970     5.4320 c5         1 52U      -0.135700
      9 C30        -17.0140    -2.7930     4.4700 c5         1 52U      -0.102400
     10 C29        -18.3030    -3.5720     4.0560 c5         1 52U       0.166600
     11 O28        -19.3100    -3.2570     5.0480 os         1 52U      -0.489000
     12 C27        -18.6630    -2.5520     6.1160 c5         1 52U       0.389300
     13 O01        -19.6550    -1.7630     6.8270 os         1 52U      -0.446000
     14 C02        -20.0810    -0.4880     6.2910 c6         1 52U       0.156600
     15 C01        -18.9000     0.3880     5.8310 c6         1 52U      -0.118400
     16 C24        -18.0430    -0.3580     4.8000 c6         1 52U       0.197300
     17 O23        -18.8020    -0.5360     3.5850 os         1 52U      -0.470100
     18 O22        -17.0270    -0.2100     2.1590 o          1 52U      -0.541000
     19 N20        -19.1180    -0.7960     1.4080 ns         1 52U      -0.502900
     20 C32        -19.1610    -2.2700    -0.5940 c3         1 52U      -0.040100
     21 C07        -18.4360    -3.4080     0.1280 ca         1 52U      -0.084300
     22 C06        -17.0410    -3.3640     0.3300 ca         1 52U      -0.101000
     23 C05        -16.3830    -4.4210     0.9840 ca         1 52U      -0.115500
     24 C09        -17.1110    -5.5360     1.4300 ca         1 52U      -0.116000
     25 C03        -18.4990    -5.5920     1.2220 ca         1 52U      -0.115500
     26 C08        -19.1590    -4.5330     0.5740 ca         1 52U      -0.101000
     27 O18        -20.9710     0.1300    -0.8260 oh         1 52U      -0.673000
     28 C16        -19.0000     0.5540    -2.2320 c3         1 52U       0.212800
     29 N11        -17.5650     0.9670    -2.3160 n3         1 52U      -0.742500
     30 C12        -17.3690     2.4370    -2.4590 c3         1 52U       0.204800
     31 C13        -17.8250     3.3170    -1.2640 c3         1 52U      -0.063700
     32 C15        -17.6720     4.8190    -1.5960 c3         1 52U      -0.091100
     33 C14        -17.0690     2.9660     0.0410 c3         1 52U      -0.091100
     34 S8         -16.6470     0.0500    -3.4280 sy         1 52U       1.195600
     35 O9         -16.8960    -1.3580    -3.1020 o          1 52U      -0.546000
     36 O10        -15.2830     0.5900    -3.3870 o          1 52U      -0.546000
     37 C2         -18.6030     1.1000    -7.4760 ca         1 52U       0.194100
     38 O03        -19.2260     1.3680    -8.6790 os         1 52U      -0.343100
     39 C04        -18.8660     2.4980    -9.4940 c3         1 52U       0.146900
     40 H1         -17.2140     2.7830    -7.4930 ha         1 52U       0.129000
     41 H2         -16.1710     2.2150    -5.3420 ha         1 52U       0.133500
     42 H3         -18.7780    -1.2370    -4.9890 ha         1 52U       0.133500
     43 H4         -19.8220    -0.6510    -7.1580 ha         1 52U       0.129000
     44 H5         -19.3300     1.2330    -0.2120 h1         1 52U       0.055700
     45 H6         -17.7640    -0.6910    -0.1740 h1         1 52U       0.101700
     46 H7         -16.8020    -1.4100     6.1630 hc         1 52U       0.075700
     47 H8         -16.3210    -3.4620     4.9930 hc         1 52U       0.062700
     48 H9         -16.4680    -2.3910     3.6110 hc         1 52U       0.062700
     49 H10        -18.6730    -3.2560     3.0720 h1         1 52U       0.046700
     50 H11        -18.1350    -4.6570     4.0300 h1         1 52U       0.046700
     51 H12        -18.2070    -3.2810     6.8010 h2         1 52U       0.074700
     52 H13        -20.6670     0.0410     7.0560 h1         1 52U       0.059200
     53 H14        -20.7480    -0.6770     5.4370 h1         1 52U       0.059200
     54 H15        -18.2870     0.6680     6.6980 hc         1 52U       0.063200
     55 H16        -19.2750     1.3250     5.3980 hc         1 52U       0.063200
     56 H17        -17.1670     0.2710     4.5810 h1         1 52U       0.083700
     57 H18        -20.0370    -1.0440     1.7480 hn         1 52U       0.320500
     58 H19        -18.9050    -2.3110    -1.6580 hc         1 52U       0.065200
     59 H20        -20.2450    -2.4310    -0.5440 hc         1 52U       0.065200
     60 H21        -16.4590    -2.5160    -0.0220 ha         1 52U       0.121500
     61 H22        -15.3070    -4.3770     1.1390 ha         1 52U       0.112000
     62 H23        -16.6010    -6.3540     1.9330 ha         1 52U       0.110000
     63 H24        -19.0650    -6.4560     1.5650 ha         1 52U       0.112000
     64 H25        -20.2340    -4.5910     0.4190 ha         1 52U       0.121500
     65 H26        -21.3080     0.2860     0.0830 ho         1 52U       0.450000
     66 H27        -19.6310     1.3090    -2.7200 h1         1 52U       0.063200
     67 H28        -19.1830    -0.3730    -2.7880 h1         1 52U       0.063200
     68 H29        -16.3060     2.6650    -2.6110 h1         1 52U       0.050700
     69 H30        -17.8910     2.7870    -3.3600 h1         1 52U       0.050700
     70 H31        -18.8950     3.1500    -1.1000 hc         1 52U       0.046700
     71 H32        -18.0370     5.4380    -0.7680 hc         1 52U       0.040367
     72 H33        -16.6210     5.0750    -1.7780 hc         1 52U       0.040367
     73 H34        -18.2490     5.0790    -2.4910 hc         1 52U       0.040367
     74 H35        -17.4560     3.5530     0.8830 hc         1 52U       0.040367
     75 H36        -17.1790     1.9060     0.2910 hc         1 52U       0.040367
     76 H37        -15.9980     3.1780    -0.0610 hc         1 52U       0.040367
     77 H38        -19.4820     2.5250   -10.4010 h1         1 52U       0.048033
     78 H39        -19.0230     3.4380    -8.9490 h1         1 52U       0.048033
     79 H40        -17.8140     2.4390    -9.8000 h1         1 52U       0.048033
     80 C21        -18.1930    -0.5000     2.3680 c          1 52U       0.636100
@<TRIPOS>BOND
     1     1     2 ar  
     2     1    37 ar  
     3     1    40 1   
     4     2     3 ar  
     5     2    41 1   
     6     3     4 ar  
     7     3    34 1   
     8     4     5 ar  
     9     4    42 1   
    10     5    37 ar  
    11     5    43 1   
    12     6     7 1   
    13     6    27 1   
    14     6    28 1   
    15     6    44 1   
    16     7    19 1   
    17     7    20 1   
    18     7    45 1   
    19     8     9 1   
    20     8    12 1   
    21     8    16 1   
    22     8    46 1   
    23     9    10 1   
    24     9    47 1   
    25     9    48 1   
    26    10    11 1   
    27    10    49 1   
    28    10    50 1   
    29    11    12 1   
    30    12    13 1   
    31    12    51 1   
    32    13    14 1   
    33    14    15 1   
    34    14    52 1   
    35    14    53 1   
    36    15    16 1   
    37    15    54 1   
    38    15    55 1   
    39    16    17 1   
    40    16    56 1   
    41    17    80 1   
    42    18    80 2   
    43    19    57 1   
    44    19    80 1   
    45    20    21 1   
    46    20    58 1   
    47    20    59 1   
    48    21    22 ar  
    49    21    26 ar  
    50    22    23 ar  
    51    22    60 1   
    52    23    24 ar  
    53    23    61 1   
    54    24    25 ar  
    55    24    62 1   
    56    25    26 ar  
    57    25    63 1   
    58    26    64 1   
    59    27    65 1   
    60    28    29 1   
    61    28    66 1   
    62    28    67 1   
    63    29    30 1   
    64    29    34 1   
    65    30    31 1   
    66    30    68 1   
    67    30    69 1   
    68    31    32 1   
    69    31    33 1   
    70    31    70 1   
    71    32    71 1   
    72    32    72 1   
    73    32    73 1   
    74    33    74 1   
    75    33    75 1   
    76    33    76 1   
    77    34    35 2   
    78    34    36 2   
    79    37    38 1   
    80    38    39 1   
    81    39    77 1   
    82    39    78 1   
    83    39    79 1   
@<TRIPOS>SUBSTRUCTURE
     1 52U         1 TEMP              0 ****  ****    0 ROOT
