@<TRIPOS>MOLECULE
52U
   80    83     1     0     0
SMALL
abcg2


@<TRIPOS>ATOM
      1 C7         -17.1660     1.8170    -6.8480 ca         1 52U      -0.193000
      2 C6         -16.8200     1.5840    -5.5240 ca         1 52U       0.023500
      3 C5         -17.3720     0.5100    -4.8340 ca         1 52U      -0.360500
      4 C4         -18.2810    -0.3410    -5.4690 ca         1 52U       0.023500
      5 C3         -18.6280    -0.1130    -6.7850 ca         1 52U      -0.193000
      6 C17        -19.8430     0.2920    -0.6980 c3         1 52U       0.156300
      7 C19        -19.0240    -0.8330    -0.0480 c3         1 52U       0.097700
      8 C31        -17.4130    -2.0120     5.2440 c5         1 52U      -0.135700
      9 C30        -17.4620    -3.1900     4.2670 c5         1 52U      -0.102400
     10 C29        -18.9440    -3.6020     4.2720 c5         1 52U       0.166600
     11 O28        -19.5330    -3.0250     5.4530 os         1 52U      -0.489000
     12 C27        -18.5150    -2.4030     6.2400 c5         1 52U       0.389300
     13 O01        -19.0610    -1.3790     7.0150 os         1 52U      -0.446000
     14 C02        -19.3800    -0.1700     6.3080 c6         1 52U       0.156600
     15 C01        -18.1560     0.3740     5.5970 c6         1 52U      -0.118400
     16 C24        -17.6320    -0.6400     4.5930 c6         1 52U       0.197300
     17 O23        -18.6130    -0.7470     3.5300 os         1 52U      -0.470100
     18 O22        -17.0800    -0.1870     1.9420 o          1 52U      -0.541000
     19 N20        -19.2080    -0.8150     1.3970 ns         1 52U      -0.502900
     20 C32        -19.3360    -2.2280    -0.6020 c3         1 52U      -0.040100
     21 C07        -18.4730    -3.3030     0.0090 ca         1 52U      -0.084300
     22 C06        -17.0840    -3.2800    -0.1380 ca         1 52U      -0.101000
     23 C05        -16.2910    -4.2650     0.4390 ca         1 52U      -0.115500
     24 C09        -16.8730    -5.2970     1.1710 ca         1 52U      -0.116000
     25 C03        -18.2550    -5.3330     1.3200 ca         1 52U      -0.115500
     26 C08        -19.0440    -4.3410     0.7450 ca         1 52U      -0.101000
     27 O18        -21.2430     0.0040    -0.7400 oh         1 52U      -0.673000
     28 C16        -19.4480     0.5940    -2.1440 c3         1 52U       0.212800
     29 N11        -18.0880     1.1430    -2.2590 n3         1 52U      -0.742500
     30 C12        -17.9980     2.6100    -2.3980 c3         1 52U       0.204800
     31 C13        -18.2970     3.3730    -1.1070 c3         1 52U      -0.063700
     32 C15        -18.2620     4.8730    -1.4070 c3         1 52U      -0.091100
     33 C14        -17.3210     3.0050     0.0080 c3         1 52U      -0.091100
     34 S8         -16.9930     0.2690    -3.1280 sy         1 52U       1.195600
     35 O9         -17.2170    -1.1220    -2.8110 o          1 52U      -0.546000
     36 O10        -15.6940     0.8470    -2.8710 o          1 52U      -0.546000
     37 C2         -18.0760     0.9690    -7.4840 ca         1 52U       0.194100
     38 O03        -18.4760     1.1090    -8.7670 os         1 52U      -0.343100
     39 C04        -17.9510     2.1970    -9.5340 c3         1 52U       0.146900
     40 H1         -16.7230     2.6520    -7.3700 ha         1 52U       0.129000
     41 H2         -16.1100     2.2360    -5.0350 ha         1 52U       0.133500
     42 H3         -18.7000    -1.1840    -4.9380 ha         1 52U       0.133500
     43 H4         -19.3240    -0.7660    -7.2960 ha         1 52U       0.129000
     44 H5         -19.6780     1.1880    -0.0960 h1         1 52U       0.055700
     45 H6         -17.9760    -0.5980    -0.2190 h1         1 52U       0.101700
     46 H7         -16.4580    -1.9630     5.7690 hc         1 52U       0.075700
     47 H8         -16.8420    -4.0040     4.6420 hc         1 52U       0.062700
     48 H9         -17.1090    -2.9380     3.2690 hc         1 52U       0.062700
     49 H10        -19.4790    -3.2170     3.4050 h1         1 52U       0.046700
     50 H11        -19.0640    -4.6860     4.3050 h1         1 52U       0.046700
     51 H12        -18.1290    -3.1230     6.9690 h2         1 52U       0.074700
     52 H13        -19.7380     0.5220     7.0690 h1         1 52U       0.059200
     53 H14        -20.1920    -0.3570     5.6010 h1         1 52U       0.059200
     54 H15        -17.3720     0.5830     6.3290 hc         1 52U       0.063200
     55 H16        -18.3980     1.3080     5.0870 hc         1 52U       0.063200
     56 H17        -16.7010    -0.3020     4.1460 h1         1 52U       0.083700
     57 H18        -20.0400    -1.2310     1.7860 hn         1 52U       0.320500
     58 H19        -19.1900    -2.2070    -1.6830 hc         1 52U       0.065200
     59 H20        -20.3870    -2.4570    -0.4200 hc         1 52U       0.065200
     60 H21        -16.6230    -2.4850    -0.7100 ha         1 52U       0.121500
     61 H22        -15.2150    -4.2280     0.3170 ha         1 52U       0.112000
     62 H23        -16.2550    -6.0620     1.6230 ha         1 52U       0.110000
     63 H24        -18.7190    -6.1260     1.8930 ha         1 52U       0.112000
     64 H25        -20.1200    -4.3680     0.8740 ha         1 52U       0.121500
     65 H26        -21.5870     0.0060     0.1620 ho         1 52U       0.450000
     66 H27        -20.1510     1.3270    -2.5420 h1         1 52U       0.063200
     67 H28        -19.5460    -0.3060    -2.7450 h1         1 52U       0.063200
     68 H29        -16.9850     2.8560    -2.7130 h1         1 52U       0.050700
     69 H30        -18.6840     2.9340    -3.1880 h1         1 52U       0.050700
     70 H31        -19.3130     3.1250    -0.7840 hc         1 52U       0.046700
     71 H32        -18.5020     5.4490    -0.5110 hc         1 52U       0.040367
     72 H33        -17.2670     5.1760    -1.7450 hc         1 52U       0.040367
     73 H34        -18.9800     5.1400    -2.1850 hc         1 52U       0.040367
     74 H35        -17.5730     3.5360     0.9280 hc         1 52U       0.040367
     75 H36        -17.3320     1.9370     0.2200 hc         1 52U       0.040367
     76 H37        -16.3010     3.2810    -0.2740 hc         1 52U       0.040367
     77 H38        -18.4070     2.1120   -10.5160 h1         1 52U       0.048033
     78 H39        -18.2190     3.1550    -9.0830 h1         1 52U       0.048033
     79 H40        -16.8650     2.1220    -9.6230 h1         1 52U       0.048033
     80 C21        -18.2010    -0.5550     2.2560 c          1 52U       0.636100
@<TRIPOS>BOND
     1     1     2 ar  
     2     1    37 ar  
     3     1    40 1   
     4     2     3 ar  
     5     2    41 1   
     6     3     4 ar  
     7     3    34 1   
     8     4     5 ar  
     9     4    42 1   
    10     5    37 ar  
    11     5    43 1   
    12     6     7 1   
    13     6    27 1   
    14     6    28 1   
    15     6    44 1   
    16     7    19 1   
    17     7    20 1   
    18     7    45 1   
    19     8     9 1   
    20     8    12 1   
    21     8    16 1   
    22     8    46 1   
    23     9    10 1   
    24     9    47 1   
    25     9    48 1   
    26    10    11 1   
    27    10    49 1   
    28    10    50 1   
    29    11    12 1   
    30    12    13 1   
    31    12    51 1   
    32    13    14 1   
    33    14    15 1   
    34    14    52 1   
    35    14    53 1   
    36    15    16 1   
    37    15    54 1   
    38    15    55 1   
    39    16    17 1   
    40    16    56 1   
    41    17    80 1   
    42    18    80 2   
    43    19    57 1   
    44    19    80 1   
    45    20    21 1   
    46    20    58 1   
    47    20    59 1   
    48    21    22 ar  
    49    21    26 ar  
    50    22    23 ar  
    51    22    60 1   
    52    23    24 ar  
    53    23    61 1   
    54    24    25 ar  
    55    24    62 1   
    56    25    26 ar  
    57    25    63 1   
    58    26    64 1   
    59    27    65 1   
    60    28    29 1   
    61    28    66 1   
    62    28    67 1   
    63    29    30 1   
    64    29    34 1   
    65    30    31 1   
    66    30    68 1   
    67    30    69 1   
    68    31    32 1   
    69    31    33 1   
    70    31    70 1   
    71    32    71 1   
    72    32    72 1   
    73    32    73 1   
    74    33    74 1   
    75    33    75 1   
    76    33    76 1   
    77    34    35 2   
    78    34    36 2   
    79    37    38 1   
    80    38    39 1   
    81    39    77 1   
    82    39    78 1   
    83    39    79 1   
@<TRIPOS>SUBSTRUCTURE
     1 52U         1 TEMP              0 ****  ****    0 ROOT
