@<TRIPOS>MOLECULE
52V
   55    57     1     0     0
SMALL
abcg2


@<TRIPOS>ATOM
      1 C1           5.2860    -1.0200    -0.4320 ca         1 52V       0.448900
      2 C2          -2.0260     3.4420     2.1340 c3         1 52V       0.148900
      3 C3           6.6650     0.7250     0.0230 ca         1 52V       0.427900
      4 C6           4.1710    -0.2370    -0.0340 ca         1 52V      -0.227000
      5 C12          0.3860    -1.7660    -0.0630 c3         1 52V       0.078700
      6 C13          0.2610    -2.8670     1.0020 c3         1 52V      -0.082100
      7 C14         -0.6700    -0.6990     0.1570 ca         1 52V      -0.041300
      8 C15         -0.3990     0.4570     0.8670 ca         1 52V      -0.134000
      9 C16         -1.4070     1.3920     1.1100 ca         1 52V       0.138100
     10 C17         -2.6940     1.1610     0.6380 ca         1 52V      -0.190000
     11 C18         -2.9690    -0.0050    -0.0750 cp         1 52V       0.004000
     12 C20         -5.2080    -1.0710     0.1760 ca         1 52V      -0.055800
     13 C21         -6.5000    -1.2940    -0.2930 ca         1 52V      -0.118000
     14 C22         -6.9320    -0.7190    -1.4790 ca         1 52V      -0.102000
     15 C23         -6.0730     0.0860    -2.2100 ca         1 52V      -0.118000
     16 C24         -4.7750     0.3300    -1.7680 ca         1 52V      -0.055800
     17 C27         -3.8540     1.2050    -2.5680 c3         1 52V      -0.047800
     18 C25         -4.3490    -0.2550    -0.5690 cp         1 52V      -0.049000
     19 C19         -1.9620    -0.9270    -0.3160 ca         1 52V      -0.138000
     20 O17         -1.0400     2.4830     1.8080 os         1 52V      -0.343100
     21 C11          1.7380    -1.2160    -0.0820 c1         1 52V      -0.161100
     22 C10          2.8570    -0.7620    -0.0590 cg         1 52V      -0.082000
     23 C5           4.4510     1.0630     0.3860 ca         1 52V       0.224300
     24 C8           3.3470     1.9660     0.8340 c3         1 52V      -0.156400
     25 N4           5.6850     1.5490     0.4160 nb         1 52V      -0.293000
     26 N7           7.9200     1.2090     0.0850 nv         1 52V      -1.061900
     27 N2           6.5210    -0.5290    -0.3990 nb         1 52V      -0.344000
     28 N9           5.1300    -2.2800    -0.8490 nv         1 52V      -1.077900
     29 H2          -1.5250     4.2200     2.7050 h1         1 52V       0.040367
     30 H2A         -2.4720     3.8920     1.2430 h1         1 52V       0.040367
     31 H2B         -2.8230     3.0150     2.7480 h1         1 52V       0.040367
     32 H12          0.1940    -2.2230    -1.0400 hc         1 52V       0.064700
     33 H13         -0.7400    -3.2990     0.9830 hc         1 52V       0.041033
     34 H13A         0.9800    -3.6650     0.8160 hc         1 52V       0.041033
     35 H13B         0.4420    -2.4610     1.9970 hc         1 52V       0.041033
     36 H15          0.6000     0.6520     1.2390 ha         1 52V       0.134000
     37 H17         -3.4950     1.8690     0.8110 ha         1 52V       0.122000
     38 H26         -3.9670    -2.4390     1.2920 hc         1 52V       0.043867
     39 H26A        -4.3360    -0.9570     2.1460 hc         1 52V       0.043867
     40 H26B        -5.5750    -2.2000     1.9680 hc         1 52V       0.043867
     41 H21         -7.1710    -1.9240     0.2770 ha         1 52V       0.111000
     42 H22         -7.9390    -0.8980    -1.8320 ha         1 52V       0.112000
     43 H23         -6.4100     0.5330    -3.1380 ha         1 52V       0.111000
     44 H27         -3.5920     2.1160    -2.0270 hc         1 52V       0.043867
     45 H27A        -2.9150     0.6990    -2.7990 hc         1 52V       0.043867
     46 H27B        -4.3150     1.5000    -3.5100 hc         1 52V       0.043867
     47 H19         -2.1840    -1.8290    -0.8750 ha         1 52V       0.118000
     48 H8           2.8760     1.5780     1.7400 hc         1 52V       0.059033
     49 H8A          3.7270     2.9630     1.0440 hc         1 52V       0.059033
     50 H8B          2.5630     2.0380     0.0790 hc         1 52V       0.059033
     51 HN7          8.0530     2.1960     0.2180 hn         1 52V       0.495000
     52 HN7A         8.6630     0.6970    -0.3580 hn         1 52V       0.495000
     53 HN9          4.2180    -2.6890    -0.9530 hn         1 52V       0.501500
     54 HN9A         5.9270    -2.8090    -1.1580 hn         1 52V       0.501500
     55 C26         -4.7510    -1.6990     1.4620 c3         1 52V      -0.047800
@<TRIPOS>BOND
     1     1     4 ar  
     2     1    27 ar  
     3     1    28 1   
     4     2    20 1   
     5     2    29 1   
     6     2    30 1   
     7     2    31 1   
     8     3    25 ar  
     9     3    26 1   
    10     3    27 ar  
    11     4    22 1   
    12     4    23 ar  
    13     5     6 1   
    14     5     7 1   
    15     5    21 1   
    16     5    32 1   
    17     6    33 1   
    18     6    34 1   
    19     6    35 1   
    20     7     8 ar  
    21     7    19 ar  
    22     8     9 ar  
    23     8    36 1   
    24     9    10 ar  
    25     9    20 1   
    26    10    11 ar  
    27    10    37 1   
    28    11    18 1   
    29    11    19 ar  
    30    12    13 ar  
    31    12    18 ar  
    32    12    55 1   
    33    13    14 ar  
    34    13    41 1   
    35    14    15 ar  
    36    14    42 1   
    37    15    16 ar  
    38    15    43 1   
    39    16    17 1   
    40    16    18 ar  
    41    17    44 1   
    42    17    45 1   
    43    17    46 1   
    44    19    47 1   
    45    21    22 3   
    46    23    24 1   
    47    23    25 ar  
    48    24    48 1   
    49    24    49 1   
    50    24    50 1   
    51    26    51 1   
    52    26    52 1   
    53    28    53 1   
    54    28    54 1   
    55    38    55 1   
    56    39    55 1   
    57    40    55 1   
@<TRIPOS>SUBSTRUCTURE
     1 52V         1 TEMP              0 ****  ****    0 ROOT
