@<TRIPOS>MOLECULE
52V
   55    57     1     0     0
SMALL
No Charge or Current Charge


@<TRIPOS>ATOM
      1 C1           5.0190    -1.1010    -0.5850 ca         1 52V       0.448900
      2 C2          -2.3220     3.3040     2.8950 c3         1 52V       0.148900
      3 C3           6.0800     0.8170    -1.1260 ca         1 52V       0.427900
      4 C6           3.8580    -0.3780    -0.2470 ca         1 52V      -0.227000
      5 C12          0.3590    -2.0830     1.1110 c3         1 52V       0.078700
      6 C13          0.5260    -2.7470     2.4970 c3         1 52V      -0.082100
      7 C14         -0.7060    -0.9830     1.1170 ca         1 52V      -0.041300
      8 C15         -0.5960     0.1300     1.9770 ca         1 52V      -0.134000
      9 C16         -1.5660     1.1440     1.9700 ca         1 52V       0.138100
     10 C17         -2.6660     1.0490     1.0930 ca         1 52V      -0.190000
     11 C18         -2.7990    -0.0530     0.2190 cp         1 52V       0.004000
     12 C20         -4.9660    -1.1370    -0.5180 ca         1 52V      -0.055800
     13 C21         -6.0540    -1.2200    -1.4070 ca         1 52V      -0.118000
     14 C22         -6.1590    -0.3330    -2.4880 ca         1 52V      -0.102000
     15 C23         -5.1760     0.6450    -2.6910 ca         1 52V      -0.118000
     16 C24         -4.0750     0.7440    -1.8180 ca         1 52V      -0.055800
     17 C27         -3.0200     1.8120    -2.0920 c3         1 52V      -0.047800
     18 C25         -3.9590    -0.1500    -0.7160 cp         1 52V      -0.049000
     19 C19         -1.8070    -1.0600     0.2430 ca         1 52V      -0.138000
     20 O17         -1.3940     2.2060     2.8340 os         1 52V      -0.343100
     21 C11          1.6320    -1.5330     0.6220 c1         1 52V      -0.161100
     22 C10          2.6580    -1.0210     0.2230 cg         1 52V      -0.082000
     23 C5           3.9280     1.0260    -0.3960 ca         1 52V       0.224300
     24 C8           2.7580     1.9480    -0.0730 c3         1 52V      -0.156400
     25 N4           5.0520     1.6240    -0.8410 nb         1 52V      -0.293000
     26 N7           7.2030     1.4180    -1.5750 nv         1 52V      -1.061900
     27 N2           6.1330    -0.5130    -1.0280 nb         1 52V      -0.344000
     28 N9           5.0990    -2.4540    -0.4950 nv         1 52V      -1.077900
     29 H2          -1.9950     4.0370     3.6430 h1         1 52V       0.040367
     30 H2A         -2.3880     3.8130     1.9250 h1         1 52V       0.040367
     31 H2B         -3.3230     2.9530     3.1780 h1         1 52V       0.040367
     32 H12          0.0610    -2.8730     0.4110 hc         1 52V       0.064700
     33 H13         -0.4340    -3.1470     2.8450 hc         1 52V       0.041033
     34 H13A         1.2400    -3.5770     2.4450 hc         1 52V       0.041033
     35 H13B         0.8890    -2.0310     3.2440 hc         1 52V       0.041033
     36 H15          0.2520     0.2180     2.6510 ha         1 52V       0.134000
     37 H17         -3.4320     1.8170     1.0710 ha         1 52V       0.122000
     38 H26         -4.1460    -2.8860     0.4810 hc         1 52V       0.043867
     39 H26A        -4.6550    -1.5980     1.5890 hc         1 52V       0.043867
     40 H26B        -5.8640    -2.6220     0.8110 hc         1 52V       0.043867
     41 H21         -6.8250    -1.9730    -1.2610 ha         1 52V       0.111000
     42 H22         -7.0050    -0.4030    -3.1690 ha         1 52V       0.112000
     43 H23         -5.2690     1.3260    -3.5340 ha         1 52V       0.111000
     44 H27         -3.1080     2.6420    -1.3820 hc         1 52V       0.043867
     45 H27A        -2.0070     1.4020    -2.0080 hc         1 52V       0.043867
     46 H27B        -3.1160     2.2300    -3.1020 hc         1 52V       0.043867
     47 H19         -1.9020    -1.9050    -0.4340 ha         1 52V       0.118000
     48 H8           2.4640     1.8530     0.9790 hc         1 52V       0.059033
     49 H8A          3.0040     3.0020    -0.2520 hc         1 52V       0.059033
     50 H8B          1.8850     1.7040    -0.6890 hc         1 52V       0.059033
     51 HN7          7.1360     2.3830    -1.8880 hn         1 52V       0.495000
     52 HN7A         7.9130     0.8410    -2.0180 hn         1 52V       0.495000
     53 HN9          4.2300    -2.9710    -0.3890 hn         1 52V       0.501500
     54 HN9A         5.8540    -2.9240    -0.9880 hn         1 52V       0.501500
     55 C26         -4.9050    -2.1140     0.6530 c3         1 52V      -0.047800
@<TRIPOS>BOND
     1     1     4 ar  
     2     1    27 ar  
     3     1    28 1   
     4     2    20 1   
     5     2    29 1   
     6     2    30 1   
     7     2    31 1   
     8     3    25 ar  
     9     3    26 1   
    10     3    27 ar  
    11     4    22 1   
    12     4    23 ar  
    13     5     6 1   
    14     5     7 1   
    15     5    21 1   
    16     5    32 1   
    17     6    33 1   
    18     6    34 1   
    19     6    35 1   
    20     7     8 ar  
    21     7    19 ar  
    22     8     9 ar  
    23     8    36 1   
    24     9    10 ar  
    25     9    20 1   
    26    10    11 ar  
    27    10    37 1   
    28    11    18 1   
    29    11    19 ar  
    30    12    13 ar  
    31    12    18 ar  
    32    12    55 1   
    33    13    14 ar  
    34    13    41 1   
    35    14    15 ar  
    36    14    42 1   
    37    15    16 ar  
    38    15    43 1   
    39    16    17 1   
    40    16    18 ar  
    41    17    44 1   
    42    17    45 1   
    43    17    46 1   
    44    19    47 1   
    45    21    22 3   
    46    23    24 1   
    47    23    25 ar  
    48    24    48 1   
    49    24    49 1   
    50    24    50 1   
    51    26    51 1   
    52    26    52 1   
    53    28    53 1   
    54    28    54 1   
    55    38    55 1   
    56    39    55 1   
    57    40    55 1   
@<TRIPOS>SUBSTRUCTURE
     1 52V         1 TEMP              0 ****  ****    0 ROOT
