@<TRIPOS>MOLECULE
52W
   81    84     1     0     0
SMALL
abcg2


@<TRIPOS>ATOM
      1 N11        -10.1820    15.2530     1.6090 n3         1 52W      -0.755500
      2 C12        -11.4880    14.5580     1.6230 c3         1 52W       0.217800
      3 C13        -11.6510    13.4180     0.6160 c3         1 52W      -0.077700
      4 C14        -13.0470    12.8170     0.7910 c3         1 52W      -0.086600
      5 C15        -11.4220    13.8730    -0.8230 c3         1 52W      -0.086600
      6 C31         -6.9470    16.1120    -5.7460 c5         1 52W      -0.137700
      7 C1          -6.0560    16.7990    -4.7130 c5         1 52W       0.141300
      8 O1          -4.6980    16.6170    -5.1300 oh         1 52W      -0.726000
      9 C29         -6.4940    18.2700    -4.7970 c5         1 52W       0.137600
     10 O28         -7.1810    18.4400    -6.0460 os         1 52W      -0.484000
     11 C27         -7.1240    17.2220    -6.7950 c5         1 52W       0.392300
     12 O01         -8.2290    17.1230    -7.6390 os         1 52W      -0.445000
     13 C02         -9.4680    16.7820    -6.9970 c6         1 52W       0.155600
     14 C01         -9.3340    15.4690    -6.2500 c6         1 52W      -0.115400
     15 C24         -8.2670    15.5750    -5.1740 c6         1 52W       0.197300
     16 O23         -8.7730    16.4670    -4.1490 os         1 52W      -0.473100
     17 C21         -8.6640    16.0700    -2.8560 c          1 52W       0.633100
     18 O22         -8.3020    14.9560    -2.5110 o          1 52W      -0.542000
     19 N20         -9.0180    17.0700    -2.0270 ns         1 52W      -0.495900
     20 C19         -8.8700    16.9790    -0.5840 c3         1 52W       0.138700
     21 C07         -6.4080    17.6270    -0.7010 ca         1 52W      -0.083300
     22 C06         -5.7230    18.6160    -1.4030 ca         1 52W      -0.099500
     23 C05         -4.4640    18.3710    -1.9470 ca         1 52W      -0.119000
     24 C09         -3.8760    17.1200    -1.8040 ca         1 52W      -0.126000
     25 C03         -4.5550    16.1190    -1.1130 ca         1 52W      -0.119000
     26 C08         -5.8050    16.3730    -0.5620 ca         1 52W      -0.099500
     27 C17        -10.2120    17.2240     0.1080 c3         1 52W       0.151300
     28 O18        -10.5000    18.6220     0.0670 oh         1 52W      -0.664000
     29 C16        -10.2260    16.7240     1.5550 c3         1 52W       0.184800
     30 S8          -8.9440    14.5700     2.4470 sy         1 52W       1.201600
     31 O9          -7.7570    15.3330     2.1350 o          1 52W      -0.545500
     32 O10         -8.9650    13.1550     2.1570 o          1 52W      -0.545500
     33 C5          -9.2900    14.7730     4.1640 ca         1 52W      -0.360500
     34 C4          -9.9830    13.7830     4.8540 ca         1 52W       0.023000
     35 C3         -10.2990    13.9560     6.1950 ca         1 52W      -0.193500
     36 C2          -9.9200    15.1310     6.8480 ca         1 52W       0.194100
     37 O03        -10.1760    15.3930     8.1480 os         1 52W      -0.343100
     38 C04        -10.8760    14.4110     8.9190 c3         1 52W       0.146900
     39 C7          -9.2220    16.1250     6.1490 ca         1 52W      -0.193500
     40 C6          -8.9090    15.9490     4.8160 ca         1 52W       0.023000
     41 H1         -12.2320    15.3250     1.4050 h1         1 52W       0.039200
     42 H2         -11.7040    14.1930     2.6320 h1         1 52W       0.039200
     43 H3         -10.9150    12.6490     0.8550 hc         1 52W       0.085700
     44 H4         -13.2040    12.4660     1.8140 hc         1 52W       0.036867
     45 H5         -13.8200    13.5580     0.5660 hc         1 52W       0.036867
     46 H6         -13.1880    11.9700     0.1170 hc         1 52W       0.036867
     47 H7         -10.4160    14.2660    -0.9680 hc         1 52W       0.036867
     48 H8         -11.5580    13.0360    -1.5110 hc         1 52W       0.036867
     49 H9         -12.1370    14.6540    -1.1010 hc         1 52W       0.036867
     50 H10         -6.4190    15.2680    -6.1890 hc         1 52W       0.094700
     51 H11         -8.0380    18.9470    -0.3070 hc         1 52W       0.064700
     52 H12         -7.6870    17.8230     0.9950 hc         1 52W       0.064700
     53 H13         -6.1830    16.4020    -3.7060 h1         1 52W       0.069700
     54 H14         -4.1300    17.0490    -4.4790 ho         1 52W       0.509000
     55 H15         -5.6250    18.9290    -4.7620 h1         1 52W       0.051200
     56 H16         -7.1740    18.5330    -3.9880 h1         1 52W       0.051200
     57 H17         -6.2620    17.2520    -7.4680 h2         1 52W       0.089700
     58 H18         -9.7700    17.5870    -6.3230 h1         1 52W       0.060200
     59 H19        -10.1980    16.7090    -7.8010 h1         1 52W       0.060200
     60 H20        -10.2870    15.1910    -5.7950 hc         1 52W       0.064200
     61 H21         -9.0510    14.6790    -6.9500 hc         1 52W       0.064200
     62 H22         -8.0860    14.6100    -4.7070 h1         1 52W       0.085700
     63 H23         -9.2270    17.9660    -2.4400 hn         1 52W       0.331500
     64 H24         -8.5910    15.9500    -0.3780 h1         1 52W       0.099700
     65 H25         -6.1790    19.5910    -1.5260 ha         1 52W       0.125000
     66 H26         -3.9490    19.1570    -2.4860 ha         1 52W       0.113500
     67 H27         -2.8960    16.9240    -2.2240 ha         1 52W       0.111000
     68 H28         -4.1060    15.1400    -0.9980 ha         1 52W       0.113500
     69 H29         -6.3200    15.5940    -0.0150 ha         1 52W       0.125000
     70 H30        -10.9730    16.6780    -0.4550 h1         1 52W       0.056700
     71 H31        -11.4360    18.7460     0.2670 ho         1 52W       0.444000
     72 H32         -9.3830    17.1440     2.0960 h1         1 52W       0.057200
     73 H33        -11.1350    17.0750     2.0470 h1         1 52W       0.057200
     74 H34        -10.2640    12.8690     4.3510 ha         1 52W       0.134000
     75 H35        -10.8290    13.1740     6.7170 ha         1 52W       0.129500
     76 H36        -10.9670    14.8310     9.9170 h1         1 52W       0.048700
     77 H37        -11.8680    14.2250     8.5040 h1         1 52W       0.048700
     78 H38        -10.3120    13.4760     8.9610 h1         1 52W       0.048700
     79 H39         -8.9260    17.0240     6.6730 ha         1 52W       0.129500
     80 H40         -8.3560    16.7120     4.2880 ha         1 52W       0.134000
     81 C32         -7.7570    17.9160    -0.0900 c3         1 52W      -0.041100
@<TRIPOS>BOND
     1     1     2 1   
     2     1    29 1   
     3     1    30 1   
     4     2     3 1   
     5     2    41 1   
     6     2    42 1   
     7     3     4 1   
     8     3     5 1   
     9     3    43 1   
    10     4    44 1   
    11     4    45 1   
    12     4    46 1   
    13     5    47 1   
    14     5    48 1   
    15     5    49 1   
    16     6     7 1   
    17     6    11 1   
    18     6    15 1   
    19     6    50 1   
    20     7     8 1   
    21     7     9 1   
    22     7    53 1   
    23     8    54 1   
    24     9    10 1   
    25     9    55 1   
    26     9    56 1   
    27    10    11 1   
    28    11    12 1   
    29    11    57 1   
    30    12    13 1   
    31    13    14 1   
    32    13    58 1   
    33    13    59 1   
    34    14    15 1   
    35    14    60 1   
    36    14    61 1   
    37    15    16 1   
    38    15    62 1   
    39    16    17 1   
    40    17    18 2   
    41    17    19 1   
    42    19    20 1   
    43    19    63 1   
    44    20    27 1   
    45    20    64 1   
    46    20    81 1   
    47    21    22 ar  
    48    21    26 ar  
    49    21    81 1   
    50    22    23 ar  
    51    22    65 1   
    52    23    24 ar  
    53    23    66 1   
    54    24    25 ar  
    55    24    67 1   
    56    25    26 ar  
    57    25    68 1   
    58    26    69 1   
    59    27    28 1   
    60    27    29 1   
    61    27    70 1   
    62    28    71 1   
    63    29    72 1   
    64    29    73 1   
    65    30    31 2   
    66    30    32 2   
    67    30    33 1   
    68    33    34 ar  
    69    33    40 ar  
    70    34    35 ar  
    71    34    74 1   
    72    35    36 ar  
    73    35    75 1   
    74    36    37 1   
    75    36    39 ar  
    76    37    38 1   
    77    38    76 1   
    78    38    77 1   
    79    38    78 1   
    80    39    40 ar  
    81    39    79 1   
    82    40    80 1   
    83    51    81 1   
    84    52    81 1   
@<TRIPOS>SUBSTRUCTURE
     1 52W         1 TEMP              0 ****  ****    0 ROOT
