@<TRIPOS>MOLECULE
52W
   81    84     1     0     0
SMALL
No Charge or Current Charge


@<TRIPOS>ATOM
      1 N11        -10.0750    13.6410     1.6680 n3         1 52W      -0.755500
      2 C12        -10.4230    12.5180     0.7520 c3         1 52W       0.217800
      3 C13         -9.2980    11.4930     0.4320 c3         1 52W      -0.077700
      4 C14         -9.8010    10.4180    -0.5590 c3         1 52W      -0.086600
      5 C15         -8.0130    12.1710    -0.1020 c3         1 52W      -0.086600
      6 C31         -7.6640    17.1210    -5.5920 c5         1 52W      -0.137700
      7 C1          -6.5990    17.2660    -4.4670 c5         1 52W       0.141300
      8 O1          -5.3000    17.4670    -5.0430 oh         1 52W      -0.726000
      9 C29         -7.1180    18.5420    -3.7040 c5         1 52W       0.137600
     10 O28         -7.9380    19.2880    -4.6390 os         1 52W      -0.484000
     11 C27         -7.8500    18.6280    -5.9100 c5         1 52W       0.392300
     12 O01         -9.0580    18.9150    -6.6690 os         1 52W      -0.445000
     13 C02        -10.2650    18.1570    -6.4180 c6         1 52W       0.155600
     14 C01        -10.0070    16.6400    -6.3390 c6         1 52W      -0.115400
     15 C24         -8.9580    16.3250    -5.2660 c6         1 52W       0.197300
     16 O23         -9.5060    16.6160    -3.9630 os         1 52W      -0.473100
     17 C21         -9.1630    15.8700    -2.8780 c          1 52W       0.633100
     18 O22         -8.4630    14.8710    -2.8900 o          1 52W      -0.542000
     19 N20         -9.7560    16.4040    -1.7730 ns         1 52W      -0.495900
     20 C19         -9.6410    15.8710    -0.4100 c3         1 52W       0.138700
     21 C07         -7.4400    17.2070    -0.0530 ca         1 52W      -0.083300
     22 C06         -7.0360    18.5570    -0.0820 ca         1 52W      -0.099500
     23 C05         -5.7600    18.9090    -0.5550 ca         1 52W      -0.119000
     24 C09         -4.8760    17.9140    -1.0040 ca         1 52W      -0.126000
     25 C03         -5.2680    16.5660    -0.9730 ca         1 52W      -0.119000
     26 C08         -6.5420    16.2130    -0.4930 ca         1 52W      -0.099500
     27 C17        -11.0530    15.5080     0.1500 c3         1 52W       0.151300
     28 O18        -11.8800    16.6920     0.2200 oh         1 52W      -0.664000
     29 C16        -11.0070    14.8040     1.5430 c3         1 52W       0.184800
     30 S8          -9.8060    13.1500     3.2890 sy         1 52W       1.201600
     31 O9          -8.5280    12.4310     3.3070 o          1 52W      -0.545500
     32 O10        -11.0530    12.5430     3.7670 o          1 52W      -0.545500
     33 C5          -9.5220    14.7030     4.1520 ca         1 52W      -0.360500
     34 C4         -10.5280    15.2670     4.9620 ca         1 52W       0.023000
     35 C3         -10.2970    16.4890     5.6160 ca         1 52W      -0.193500
     36 C2          -9.0600    17.1520     5.4650 ca         1 52W       0.194100
     37 O03         -8.7800    18.3550     6.0800 os         1 52W      -0.343100
     38 C04         -9.7340    19.0270     6.9220 c3         1 52W       0.146900
     39 C7          -8.0620    16.5810     4.6610 ca         1 52W      -0.193500
     40 C6          -8.2850    15.3590     4.0070 ca         1 52W       0.023000
     41 H1         -10.7340    12.9160    -0.2200 h1         1 52W       0.039200
     42 H2         -11.2930    11.9750     1.1460 h1         1 52W       0.039200
     43 H3          -9.0400    10.9580     1.3520 hc         1 52W       0.085700
     44 H4         -10.6840     9.9050    -0.1590 hc         1 52W       0.036867
     45 H5         -10.0730    10.8690    -1.5210 hc         1 52W       0.036867
     46 H6          -9.0260     9.6640    -0.7410 hc         1 52W       0.036867
     47 H7          -7.6190    12.8960     0.6200 hc         1 52W       0.036867
     48 H8          -7.2300    11.4260    -0.2880 hc         1 52W       0.036867
     49 H9          -8.2130    12.6980    -1.0420 hc         1 52W       0.036867
     50 H10         -7.2360    16.6090    -6.4610 hc         1 52W       0.094700
     51 H11         -9.4120    17.7430     0.6620 hc         1 52W       0.064700
     52 H12         -8.6900    16.3750     1.4760 hc         1 52W       0.064700
     53 H13         -6.5800    16.3870    -3.8080 h1         1 52W       0.069700
     54 H14         -4.6490    17.4600    -4.3030 ho         1 52W       0.509000
     55 H15         -6.2940    19.1770    -3.3530 h1         1 52W       0.051200
     56 H16         -7.7320    18.2740    -2.8360 h1         1 52W       0.051200
     57 H17         -6.9730    19.0110    -6.4500 h2         1 52W       0.089700
     58 H18        -10.6990    18.5020    -5.4680 h1         1 52W       0.060200
     59 H19        -10.9930    18.3750    -7.2130 h1         1 52W       0.060200
     60 H20        -10.9440    16.1130    -6.1140 hc         1 52W       0.064200
     61 H21         -9.6700    16.2710    -7.3170 hc         1 52W       0.064200
     62 H22         -8.7420    15.2470    -5.3230 h1         1 52W       0.085700
     63 H23        -10.3340    17.2190    -1.9270 hn         1 52W       0.331500
     64 H24         -9.0830    14.9280    -0.4640 h1         1 52W       0.099700
     65 H25         -7.7090    19.3380     0.2650 ha         1 52W       0.125000
     66 H26         -5.4560    19.9540    -0.5730 ha         1 52W       0.113500
     67 H27         -3.8880    18.1860    -1.3680 ha         1 52W       0.111000
     68 H28         -4.5830    15.7920    -1.3120 ha         1 52W       0.113500
     69 H29         -6.8230    15.1630    -0.4610 ha         1 52W       0.125000
     70 H30        -11.5080    14.8100    -0.5640 h1         1 52W       0.056700
     71 H31        -12.8150    16.3960     0.2860 ho         1 52W       0.444000
     72 H32        -10.7430    15.5930     2.2550 h1         1 52W       0.057200
     73 H33        -12.0260    14.4850     1.8030 h1         1 52W       0.057200
     74 H34        -11.4890    14.7690     5.0840 ha         1 52W       0.134000
     75 H35        -11.0890    16.9050     6.2310 ha         1 52W       0.129500
     76 H36         -9.3100    19.9620     7.3070 h1         1 52W       0.048700
     77 H37        -10.6450    19.2730     6.3610 h1         1 52W       0.048700
     78 H38        -10.0070    18.4000     7.7810 h1         1 52W       0.048700
     79 H39         -7.1100    17.0900     4.5440 ha         1 52W       0.129500
     80 H40         -7.5020    14.9330     3.3810 ha         1 52W       0.134000
     81 C32         -8.8210    16.8350     0.4920 c3         1 52W      -0.041100
@<TRIPOS>BOND
     1     1     2 1   
     2     1    29 1   
     3     1    30 1   
     4     2     3 1   
     5     2    41 1   
     6     2    42 1   
     7     3     4 1   
     8     3     5 1   
     9     3    43 1   
    10     4    44 1   
    11     4    45 1   
    12     4    46 1   
    13     5    47 1   
    14     5    48 1   
    15     5    49 1   
    16     6     7 1   
    17     6    11 1   
    18     6    15 1   
    19     6    50 1   
    20     7     8 1   
    21     7     9 1   
    22     7    53 1   
    23     8    54 1   
    24     9    10 1   
    25     9    55 1   
    26     9    56 1   
    27    10    11 1   
    28    11    12 1   
    29    11    57 1   
    30    12    13 1   
    31    13    14 1   
    32    13    58 1   
    33    13    59 1   
    34    14    15 1   
    35    14    60 1   
    36    14    61 1   
    37    15    16 1   
    38    15    62 1   
    39    16    17 1   
    40    17    18 2   
    41    17    19 1   
    42    19    20 1   
    43    19    63 1   
    44    20    27 1   
    45    20    64 1   
    46    20    81 1   
    47    21    22 ar  
    48    21    26 ar  
    49    21    81 1   
    50    22    23 ar  
    51    22    65 1   
    52    23    24 ar  
    53    23    66 1   
    54    24    25 ar  
    55    24    67 1   
    56    25    26 ar  
    57    25    68 1   
    58    26    69 1   
    59    27    28 1   
    60    27    29 1   
    61    27    70 1   
    62    28    71 1   
    63    29    72 1   
    64    29    73 1   
    65    30    31 2   
    66    30    32 2   
    67    30    33 1   
    68    33    34 ar  
    69    33    40 ar  
    70    34    35 ar  
    71    34    74 1   
    72    35    36 ar  
    73    35    75 1   
    74    36    37 1   
    75    36    39 ar  
    76    37    38 1   
    77    38    76 1   
    78    38    77 1   
    79    38    78 1   
    80    39    40 ar  
    81    39    79 1   
    82    40    80 1   
    83    51    81 1   
    84    52    81 1   
@<TRIPOS>SUBSTRUCTURE
     1 52W         1 TEMP              0 ****  ****    0 ROOT
