@<TRIPOS>MOLECULE
52X
   37    38     1     0     0
SMALL
No Charge or Current Charge


@<TRIPOS>ATOM
      1 C1           0.3810     2.3710     0.3180 ca         1 52X      -0.060200
      2 I1          -3.6860     1.2720    -0.3340 i          1 52X      -0.103800
      3 N1          -0.9800     2.6210     0.3050 na         1 52X      -0.203700
      4 O1          -0.5830    -4.3930     1.7450 o          1 52X      -0.609100
      5 C2           1.4100     3.2400     0.6980 ca         1 52X      -0.098000
      6 N2          -0.7950    -3.3480    -0.2670 ns         1 52X      -0.510900
      7 O2           6.3470    -0.0080    -0.0740 os         1 52X      -0.461100
      8 C3           2.7370     2.7670     0.6300 ca         1 52X      -0.131000
      9 N3           4.3850     1.0490     0.1480 ns         1 52X      -0.139000
     10 O3           4.4270    -1.1600    -0.5880 o          1 52X      -0.525000
     11 C4           3.0210     1.4500     0.1890 ca         1 52X      -0.036000
     12 C5           1.9510     0.6000    -0.1890 ca         1 52X      -0.085000
     13 C6           0.6440     1.1010    -0.1080 ca         1 52X      -0.077800
     14 C7          -0.6100     0.4740    -0.4200 cc         1 52X      -0.097400
     15 C8          -1.5850     1.4320    -0.1540 cd         1 52X       0.050700
     16 C11         -0.8080    -0.9390    -0.9050 c3         1 52X      -0.025200
     17 C12         -0.6090    -1.9770     0.2140 c3         1 52X       0.106000
     18 C14         -0.7690    -4.4610     0.5390 c          1 52X       0.599100
     19 C15         -0.9880    -5.7830    -0.1860 c3         1 52X      -0.178100
     20 C18          4.9910    -0.1420    -0.2100 c          1 52X       0.644100
     21 C33          7.1710    -1.1430    -0.3990 c3         1 52X       0.171900
     22 H2           1.1950     4.2510     1.0370 ha         1 52X       0.119000
     23 HN2         -0.9550    -3.5020    -1.2560 hn         1 52X       0.310500
     24 H3           3.5510     3.4280     0.9230 ha         1 52X       0.112000
     25 HN3          5.0370     1.7660     0.4340 hn         1 52X       0.164000
     26 H5           2.1140    -0.4150    -0.5380 ha         1 52X       0.153000
     27 H11         -1.8120    -1.0560    -1.3290 hc         1 52X       0.053700
     28 H11A        -0.1010    -1.1470    -1.7180 hc         1 52X       0.053700
     29 H12         -1.3290    -1.7820     1.0210 h1         1 52X       0.058700
     30 H12A         0.4030    -1.8820     0.6300 h1         1 52X       0.058700
     31 H15         -1.9320    -5.7330    -0.7400 hc         1 52X       0.057700
     32 H15A        -0.2500    -5.8750    -0.9910 hc         1 52X       0.057700
     33 H15B        -0.9600    -6.6450     0.4890 hc         1 52X       0.057700
     34 H33          6.9240    -2.0020     0.2380 h1         1 52X       0.050033
     35 H33A         7.0370    -1.4380    -1.4480 h1         1 52X       0.050033
     36 H33B         8.2310    -0.9020    -0.2470 h1         1 52X       0.050033
     37 HN1         -1.4530     3.4770     0.5740 hn         1 52X       0.362000
@<TRIPOS>BOND
     1     1     3 1   
     2     1     5 ar  
     3     1    13 ar  
     4     2    15 1   
     5     3    15 1   
     6     3    37 1   
     7     4    18 2   
     8     5     8 ar  
     9     5    22 1   
    10     6    17 1   
    11     6    18 1   
    12     6    23 1   
    13     7    20 1   
    14     7    21 1   
    15     8    11 ar  
    16     8    24 1   
    17     9    11 1   
    18     9    20 1   
    19     9    25 1   
    20    10    20 2   
    21    11    12 ar  
    22    12    13 ar  
    23    12    26 1   
    24    13    14 1   
    25    14    15 2   
    26    14    16 1   
    27    16    17 1   
    28    16    27 1   
    29    16    28 1   
    30    17    29 1   
    31    17    30 1   
    32    18    19 1   
    33    19    31 1   
    34    19    32 1   
    35    19    33 1   
    36    21    34 1   
    37    21    35 1   
    38    21    36 1   
@<TRIPOS>SUBSTRUCTURE
     1 52X         1 TEMP              0 ****  ****    0 ROOT
