@<TRIPOS>MOLECULE
52X
   37    38     1     0     0
SMALL
abcg2


@<TRIPOS>ATOM
      1 C1           0.4440     2.3510     0.3320 ca         1 52X      -0.060200
      2 I1          -3.5460     1.2120    -0.2900 i          1 52X      -0.103800
      3 N1          -0.9120     2.5210     0.3230 na         1 52X      -0.203700
      4 O1          -0.7500    -4.3350     1.6800 o          1 52X      -0.609100
      5 C2           1.4700     3.2170     0.6990 ca         1 52X      -0.098000
      6 N2          -0.8440    -3.3160    -0.3220 ns         1 52X      -0.510900
      7 O2           6.3130     0.0230    -0.0900 os         1 52X      -0.461100
      8 C3           2.7620     2.7520     0.5980 ca         1 52X      -0.131000
      9 N3           4.4200     1.1260     0.0760 ns         1 52X      -0.139000
     10 O3           4.3970    -1.1250    -0.3490 o          1 52X      -0.525000
     11 C4           3.0570     1.4490     0.1380 ca         1 52X      -0.036000
     12 C5           2.0340     0.5930    -0.2320 ca         1 52X      -0.085000
     13 C6           0.7140     1.0520    -0.1330 ca         1 52X      -0.077800
     14 C7          -0.5410     0.4320    -0.4370 cc         1 52X      -0.097400
     15 C8          -1.4880     1.3720    -0.1350 cd         1 52X       0.050700
     16 C11         -0.7390    -0.9580    -0.9350 c3         1 52X      -0.025200
     17 C12         -0.6930    -1.9750     0.2010 c3         1 52X       0.106000
     18 C14         -0.8630    -4.4040     0.4620 c          1 52X       0.599100
     19 C15         -1.0370    -5.7220    -0.2500 c3         1 52X      -0.178100
     20 C18          4.9840    -0.0870    -0.1400 c          1 52X       0.644100
     21 C33          7.0670    -1.1670    -0.3020 c3         1 52X       0.171900
     22 H2           1.2690     4.2190     1.0530 ha         1 52X       0.119000
     23 HN2         -0.9360    -3.4300    -1.3180 hn         1 52X       0.310500
     24 H3           3.5780     3.4070     0.8800 ha         1 52X       0.112000
     25 HN3          5.0560     1.8840     0.2710 hn         1 52X       0.164000
     26 H5           2.2330    -0.4050    -0.5910 ha         1 52X       0.153000
     27 H11         -1.6930    -1.0400    -1.4610 hc         1 52X       0.053700
     28 H11A         0.0390    -1.1950    -1.6670 hc         1 52X       0.053700
     29 H12         -1.4900    -1.7600     0.9180 h1         1 52X       0.058700
     30 H12A         0.2530    -1.8860     0.7420 h1         1 52X       0.058700
     31 H15         -1.9450    -6.2070     0.1080 hc         1 52X       0.057700
     32 H15A        -1.1000    -5.6290    -1.3330 hc         1 52X       0.057700
     33 H15B        -0.2020    -6.3790    -0.0080 hc         1 52X       0.057700
     34 H33          6.8720    -1.9090     0.4720 h1         1 52X       0.050033
     35 H33A         6.8640    -1.6040    -1.2790 h1         1 52X       0.050033
     36 H33B         8.1100    -0.8680    -0.2540 h1         1 52X       0.050033
     37 HN1         -1.4030     3.3540     0.6060 hn         1 52X       0.362000
@<TRIPOS>BOND
     1     1     3 1   
     2     1     5 ar  
     3     1    13 ar  
     4     2    15 1   
     5     3    15 1   
     6     3    37 1   
     7     4    18 2   
     8     5     8 ar  
     9     5    22 1   
    10     6    17 1   
    11     6    18 1   
    12     6    23 1   
    13     7    20 1   
    14     7    21 1   
    15     8    11 ar  
    16     8    24 1   
    17     9    11 1   
    18     9    20 1   
    19     9    25 1   
    20    10    20 2   
    21    11    12 ar  
    22    12    13 ar  
    23    12    26 1   
    24    13    14 1   
    25    14    15 2   
    26    14    16 1   
    27    16    17 1   
    28    16    27 1   
    29    16    28 1   
    30    17    29 1   
    31    17    30 1   
    32    18    19 1   
    33    19    31 1   
    34    19    32 1   
    35    19    33 1   
    36    21    34 1   
    37    21    35 1   
    38    21    36 1   
@<TRIPOS>SUBSTRUCTURE
     1 52X         1 TEMP              0 ****  ****    0 ROOT
