@<TRIPOS>MOLECULE
52Y
   43    45     1     0     0
SMALL
bcc


@<TRIPOS>ATOM
      1 C1           8.3610    -0.5780    -0.8460 c3         1 52Y       0.124700
      2 O1           7.4730    -0.8350     0.2250 os         1 52Y      -0.314900
      3 C2           6.1770    -0.5130     0.0760 ca         1 52Y       0.153100
      4 C3           5.3330    -0.8220     1.1460 ca         1 52Y      -0.193500
      5 C4           3.9860    -0.5290     1.0770 ca         1 52Y      -0.070000
      6 C5           3.4300     0.0760    -0.0550 cp         1 52Y      -0.091000
      7 C6           4.2850     0.3800    -1.1110 ca         1 52Y      -0.070000
      8 C7           5.6420     0.0960    -1.0560 ca         1 52Y      -0.193500
      9 C8           1.9910     0.3820    -0.1250 cp         1 52Y       0.037000
     10 C9           1.2980     0.7700     1.0240 ca         1 52Y      -0.160000
     11 C10         -0.0480     1.0420     0.9440 ca         1 52Y       0.167900
     12 C11         -0.7400     0.9380    -0.2500 ca         1 52Y      -0.035400
     13 C12         -0.0550     0.5790    -1.3990 ca         1 52Y      -0.076000
     14 C13          1.2960     0.2940    -1.3350 ca         1 52Y      -0.132000
     15 N14         -2.1280     1.2270    -0.2850 n          1 52Y      -0.302200
     16 C15         -2.5290     2.5500    -0.4590 c          1 52Y       0.723500
     17 C16         -4.0200     2.6470    -0.5300 c5         1 52Y      -0.174300
     18 S17         -4.6930     0.9820    -0.3460 ss         1 52Y      -0.036700
     19 C18         -3.1100     0.2840    -0.1790 c2         1 52Y       0.247200
     20 O19         -1.7500     3.4580    -0.5420 o          1 52Y      -0.531500
     21 F20         -0.7190     1.4050     2.0390 f          1 52Y      -0.129900
     22 C21         -2.9100    -1.0580     0.0330 ce         1 52Y      -0.170900
     23 C22         -4.0700    -1.9500     0.0890 c          1 52Y       0.672300
     24 C23         -1.6400    -1.6560     0.2270 cg         1 52Y       0.225500
     25 N24         -0.6530    -2.2270     0.4080 n1         1 52Y      -0.370800
     26 O25         -3.7250    -3.2070     0.2890 os         1 52Y      -0.395900
     27 O26         -5.2120    -1.5680    -0.0390 o          1 52Y      -0.553000
     28 C27         -4.7690    -4.1820     0.3410 c3         1 52Y       0.130700
     29 H1           9.3370    -0.9390    -0.5310 h1         1 52Y       0.042367
     30 H2           8.0660    -1.1090    -1.7550 h1         1 52Y       0.042367
     31 H3           8.4350     0.4890    -1.0680 h1         1 52Y       0.042367
     32 H4           5.7400    -1.3000     2.0270 ha         1 52Y       0.143000
     33 H5           3.3540    -0.7990     1.9140 ha         1 52Y       0.135000
     34 H6           3.9010     0.8710    -1.9960 ha         1 52Y       0.135000
     35 H7           6.2610     0.3650    -1.9010 ha         1 52Y       0.143000
     36 H8           1.8050     0.8780     1.9740 ha         1 52Y       0.158000
     37 H9          -0.5920     0.4980    -2.3350 ha         1 52Y       0.146000
     38 H10          1.8070    -0.0220    -2.2330 ha         1 52Y       0.144000
     39 H11         -4.3910     3.2940     0.2660 h1         1 52Y       0.117200
     40 H12         -4.3190     3.0730    -1.4880 h1         1 52Y       0.117200
     41 H13         -5.3490    -4.1900    -0.5810 h1         1 52Y       0.051033
     42 H14         -4.2720    -5.1390     0.4640 h1         1 52Y       0.051033
     43 H15         -5.4330    -4.0060     1.1860 h1         1 52Y       0.051033
@<TRIPOS>BOND
     1     1     2 1   
     2     1    29 1   
     3     1    30 1   
     4     1    31 1   
     5     2     3 1   
     6     3     4 ar  
     7     3     8 ar  
     8     4     5 ar  
     9     4    32 1   
    10     5     6 ar  
    11     5    33 1   
    12     6     7 ar  
    13     6     9 1   
    14     7     8 ar  
    15     7    34 1   
    16     8    35 1   
    17     9    10 ar  
    18     9    14 ar  
    19    10    11 ar  
    20    10    36 1   
    21    11    12 ar  
    22    11    21 1   
    23    12    13 ar  
    24    12    15 1   
    25    13    14 ar  
    26    13    37 1   
    27    14    38 1   
    28    15    16 1   
    29    15    19 1   
    30    16    17 1   
    31    16    20 2   
    32    17    18 1   
    33    17    39 1   
    34    17    40 1   
    35    18    19 1   
    36    19    22 2   
    37    22    23 1   
    38    22    24 1   
    39    23    26 1   
    40    23    27 2   
    41    24    25 3   
    42    26    28 1   
    43    28    41 1   
    44    28    42 1   
    45    28    43 1   
@<TRIPOS>SUBSTRUCTURE
     1 52Y         1 TEMP              0 ****  ****    0 ROOT
