@<TRIPOS>MOLECULE
52Y
   43    45     1     0     0
SMALL
No Charge or Current Charge


@<TRIPOS>ATOM
      1 C1           8.5260    -0.7050    -1.0510 c3         1 52Y       0.147900
      2 O1           7.6670    -0.7140     0.1040 os         1 52Y      -0.338100
      3 C2           6.3190    -0.4310     0.0200 ca         1 52Y       0.153100
      4 C3           5.5660    -0.4670     1.2020 ca         1 52Y      -0.175500
      5 C4           4.1890    -0.1870     1.1800 ca         1 52Y      -0.052000
      6 C5           3.5290     0.1350    -0.0320 cp         1 52Y      -0.091000
      7 C6           4.3030     0.1660    -1.2190 ca         1 52Y      -0.052000
      8 C7           5.6820    -0.1120    -1.1970 ca         1 52Y      -0.175500
      9 C8           2.0610     0.4330    -0.0580 cp         1 52Y       0.037000
     10 C9           1.4340     1.1160     1.0130 ca         1 52Y      -0.142000
     11 C10          0.0590     1.3940     0.9880 ca         1 52Y       0.203000
     12 C11         -0.7330     0.9950    -0.1090 ca         1 52Y      -0.128000
     13 C12         -0.1260     0.3120    -1.1790 ca         1 52Y      -0.058000
     14 C13          1.2520     0.0370    -1.1520 ca         1 52Y      -0.114000
     15 N14         -2.1490     1.2690    -0.1490 n          1 52Y      -0.142600
     16 C15         -2.5950     2.6120    -0.2000 c          1 52Y       0.581000
     17 C16         -4.1090     2.6300    -0.3640 c5         1 52Y      -0.126400
     18 S17         -4.5120     1.0400    -1.1910 ss         1 52Y      -0.084600
     19 C18         -3.1410     0.2620    -0.3430 c2         1 52Y       0.247200
     20 O19         -1.8630     3.5930    -0.1620 o          1 52Y      -0.456000
     21 F20         -0.5040     2.0230     2.0450 f          1 52Y      -0.165000
     22 C21         -3.1010    -1.0480     0.0480 ce         1 52Y      -0.170900
     23 C22         -4.2040    -2.0400    -0.2290 c          1 52Y       0.623300
     24 C23         -1.9930    -1.5530     0.8030 cg         1 52Y       0.314700
     25 N24         -1.1130    -1.9520     1.4580 n1         1 52Y      -0.460000
     26 O25         -3.9460    -3.2860     0.2940 os         1 52Y      -0.419100
     27 O26         -5.2270    -1.7940    -0.8530 o          1 52Y      -0.504000
     28 C27         -4.9210    -4.3280     0.0980 c3         1 52Y       0.153900
     29 H1           9.5540    -0.9570    -0.7610 h1         1 52Y       0.042367
     30 H2           8.1920    -1.4430    -1.7920 h1         1 52Y       0.042367
     31 H3           8.5390     0.2860    -1.5200 h1         1 52Y       0.042367
     32 H4           6.0530    -0.7150     2.1420 ha         1 52Y       0.125000
     33 H5           3.6280    -0.2350     2.1110 ha         1 52Y       0.117000
     34 H6           3.8350     0.4230    -2.1660 ha         1 52Y       0.117000
     35 H7           6.2340    -0.0730    -2.1310 ha         1 52Y       0.125000
     36 H8           2.0170     1.4420     1.8680 ha         1 52Y       0.140000
     37 H9          -0.7190    -0.0070    -2.0340 ha         1 52Y       0.128000
     38 H10          1.6950    -0.5020    -1.9850 ha         1 52Y       0.126000
     39 H11         -4.5680     2.6740     0.6310 h1         1 52Y       0.117200
     40 H12         -4.4170     3.4910    -0.9680 h1         1 52Y       0.117200
     41 H13         -5.0760    -4.5230    -0.9710 h1         1 52Y       0.051033
     42 H14         -4.5830    -5.2600     0.5670 h1         1 52Y       0.051033
     43 H15         -5.8850    -4.0520     0.5450 h1         1 52Y       0.051033
@<TRIPOS>BOND
     1     1     2 1   
     2     1    29 1   
     3     1    30 1   
     4     1    31 1   
     5     2     3 1   
     6     3     4 ar  
     7     3     8 ar  
     8     4     5 ar  
     9     4    32 1   
    10     5     6 ar  
    11     5    33 1   
    12     6     7 ar  
    13     6     9 1   
    14     7     8 ar  
    15     7    34 1   
    16     8    35 1   
    17     9    10 ar  
    18     9    14 ar  
    19    10    11 ar  
    20    10    36 1   
    21    11    12 ar  
    22    11    21 1   
    23    12    13 ar  
    24    12    15 1   
    25    13    14 ar  
    26    13    37 1   
    27    14    38 1   
    28    15    16 1   
    29    15    19 1   
    30    16    17 1   
    31    16    20 2   
    32    17    18 1   
    33    17    39 1   
    34    17    40 1   
    35    18    19 1   
    36    19    22 2   
    37    22    23 1   
    38    22    24 1   
    39    23    26 1   
    40    23    27 2   
    41    24    25 3   
    42    26    28 1   
    43    28    41 1   
    44    28    42 1   
    45    28    43 1   
@<TRIPOS>SUBSTRUCTURE
     1 52Y         1 TEMP              0 ****  ****    0 ROOT
