@<TRIPOS>MOLECULE
52Z
   85    88     1     0     0
SMALL
abcg2


@<TRIPOS>ATOM
      1 CAM         -5.4180     0.4680     0.2950 ca         1 52Z       0.034000
      2 CAZ         -1.5330    -0.2620     1.5740 c3         1 52Z       0.199800
      3 OAS         -4.1300    -0.5410     2.7810 o          1 52Z      -0.551000
      4 CAN          1.2720     3.6620     0.0530 ca         1 52Z      -0.121300
      5 CAY         -0.3420    -3.4330     1.4990 c3         1 52Z      -0.084600
      6 CAL          1.3720     4.6080     1.0740 ca         1 52Z      -0.071000
      7 CAK         -5.0400    -0.8650     0.3460 ca         1 52Z      -0.337500
      8 CBA         -1.4200     0.9110     0.6020 c3         1 52Z       0.122300
      9 CAV         -1.9870    -2.1720     0.0310 c3         1 52Z       0.219800
     10 CAJ          2.5440     5.3040     1.3030 ca         1 52Z      -0.171000
     11 CAH         -7.9410     1.7190    -2.8140 c3         1 52Z       0.146900
     12 CAI         -5.5130    -1.7610    -0.6110 ca         1 52Z       0.034000
     13 OAB          5.7020    -2.3400    -1.8690 os         1 52Z      -0.480000
     14 CBC         -0.1250     1.7150     0.8350 c3         1 52Z       0.115700
     15 CAX         -0.8850    -4.2190    -0.8190 c3         1 52Z      -0.084600
     16 CAF         -6.3350    -1.3150    -1.6240 ca         1 52Z      -0.200000
     17 CAD         -6.7110     0.0310    -1.6880 ca         1 52Z       0.196100
     18 CAC          4.9060    -1.4780    -2.6570 c6         1 52Z       0.168600
     19 CAE          3.5870     4.1330    -0.5200 ca         1 52Z      -0.171000
     20 CBL          4.0440    -2.3880    -0.0970 c5         1 52Z      -0.135700
     21 CBN          5.0450    -1.9120     0.9550 c5         1 52Z       0.155300
     22 OBO          4.4150    -1.7370     2.1970 oh         1 52Z      -0.701000
     23 CBK          6.0850    -3.0520     0.9510 c5         1 52Z       0.111600
     24 OBJ          5.8390    -3.8470    -0.2070 os         1 52Z      -0.423000
     25 CBI          4.9500    -3.1850    -1.0330 c5         1 52Z       0.389300
     26 CAA          4.1030    -0.5250    -1.7870 c6         1 52Z      -0.146400
     27 CBH          3.2360    -1.3370    -0.8410 c6         1 52Z       0.212300
     28 OBG          2.6090    -0.5130     0.1410 os         1 52Z      -0.450100
     29 OBF          0.9280     0.0300    -1.2620 o          1 52Z      -0.557000
     30 NBD          1.0520     0.8680     0.8530 ns         1 52Z      -0.497900
     31 CBM          0.0060     2.8830    -0.1570 c3         1 52Z      -0.042100
     32 CAR          3.6670     5.0720     0.5050 ca         1 52Z       0.140100
     33 OBP          4.7670     5.7970     0.7920 os         1 52Z      -0.341100
     34 CBQ          5.9330     5.5820     0.0250 c3         1 52Z       0.148900
     35 CAP          2.3970     3.4430    -0.7300 ca         1 52Z      -0.071000
     36 OBB         -2.5490     1.7490     0.6620 oh         1 52Z      -0.653000
     37 NAU         -2.4320    -1.3170     1.1290 n3         1 52Z      -0.779500
     38 SAQ         -3.9820    -1.4350     1.6420 sy         1 52Z       1.201600
     39 OAT         -4.2810    -2.8510     1.8100 o          1 52Z      -0.551000
     40 OAG         -7.5150     0.3720    -2.7010 os         1 52Z      -0.336100
     41 CAO         -6.2520     0.9190    -0.7150 ca         1 52Z      -0.200000
     42 H1          -5.0770     1.1690     1.0420 ha         1 52Z       0.133500
     43 H2          -0.5590    -0.7280     1.7200 h1         1 52Z       0.071700
     44 H3          -1.8370     0.0940     2.5590 h1         1 52Z       0.071700
     45 H4          -0.7090    -2.9710     2.4160 hc         1 52Z       0.033700
     46 H5           0.0320    -4.4240     1.7610 hc         1 52Z       0.033700
     47 H6           0.5130    -2.8480     1.1440 hc         1 52Z       0.033700
     48 H7           0.5130     4.8090     1.7050 ha         1 52Z       0.113500
     49 H8          -2.2440    -4.1380     0.8340 hc         1 52Z       0.075700
     50 H9          -1.4030     0.5290    -0.4210 h1         1 52Z       0.106700
     51 H10         -1.2170    -1.6160    -0.5120 h1         1 52Z       0.051700
     52 H11         -2.7950    -2.3070    -0.6950 h1         1 52Z       0.051700
     53 H12          2.5990     6.0370     2.0980 ha         1 52Z       0.122500
     54 H13         -7.0980     2.4010    -2.9500 h1         1 52Z       0.045700
     55 H14         -8.5750     1.7660    -3.6940 h1         1 52Z       0.045700
     56 H15         -8.5200     2.0370    -1.9440 h1         1 52Z       0.045700
     57 H16         -5.2560    -2.8110    -0.5670 ha         1 52Z       0.133500
     58 H17         -0.1720     2.1350     1.8450 h1         1 52Z       0.049700
     59 H18         -0.5400    -5.2290    -0.5970 hc         1 52Z       0.033700
     60 H19         -1.6410    -4.2930    -1.6020 hc         1 52Z       0.033700
     61 H20         -0.0370    -3.6630    -1.2270 hc         1 52Z       0.033700
     62 H21         -6.7040    -2.0090    -2.3690 ha         1 52Z       0.126000
     63 H22          5.5840    -0.9270    -3.3080 h1         1 52Z       0.052200
     64 H23          4.2300    -2.0550    -3.3040 h1         1 52Z       0.052200
     65 H24          4.4300     3.9260    -1.1660 ha         1 52Z       0.122500
     66 H25          3.3580    -3.0950     0.3860 hc         1 52Z       0.092700
     67 H26          5.5250    -0.9800     0.6340 h1         1 52Z       0.050700
     68 H27          5.0500    -1.3400     2.8000 ho         1 52Z       0.506000
     69 H28          7.1110    -2.6750     0.9380 h1         1 52Z       0.057700
     70 H29          5.9620    -3.6810     1.8360 h1         1 52Z       0.057700
     71 H30          4.4030    -3.9250    -1.6350 h2         1 52Z       0.078700
     72 H31          4.7760     0.1320    -1.2290 hc         1 52Z       0.067200
     73 H32          3.4830     0.1070    -2.4250 hc         1 52Z       0.067200
     74 H33          2.4710    -1.8550    -1.4290 h1         1 52Z       0.068700
     75 H34          1.6360     0.9010     1.6720 hn         1 52Z       0.336500
     76 H35         -0.8590     3.5350    -0.0330 hc         1 52Z       0.071200
     77 H36         -0.0320     2.4970    -1.1770 hc         1 52Z       0.071200
     78 H37          6.3010     4.5570     0.1170 h1         1 52Z       0.040700
     79 H38          5.7730     5.8030    -1.0340 h1         1 52Z       0.040700
     80 H39          6.6890     6.2610     0.4120 h1         1 52Z       0.040700
     81 H40          2.3550     2.7200    -1.5360 ha         1 52Z       0.113500
     82 H41         -2.6390     2.0840     1.5610 ho         1 52Z       0.443000
     83 H42         -6.5350     1.9620    -0.7220 ha         1 52Z       0.126000
     84 CBE          1.4820     0.1300    -0.1850 c          1 52Z       0.641100
     85 CAW         -1.4250    -3.5360     0.4340 c3         1 52Z      -0.078700
@<TRIPOS>BOND
     1     1     7 ar  
     2     1    41 ar  
     3     1    42 1   
     4     2     8 1   
     5     2    37 1   
     6     2    43 1   
     7     2    44 1   
     8     3    38 2   
     9     4     6 ar  
    10     4    31 1   
    11     4    35 ar  
    12     5    45 1   
    13     5    46 1   
    14     5    47 1   
    15     5    85 1   
    16     6    10 ar  
    17     6    48 1   
    18     7    12 ar  
    19     7    38 1   
    20     8    14 1   
    21     8    36 1   
    22     8    50 1   
    23     9    37 1   
    24     9    51 1   
    25     9    52 1   
    26     9    85 1   
    27    10    32 ar  
    28    10    53 1   
    29    11    40 1   
    30    11    54 1   
    31    11    55 1   
    32    11    56 1   
    33    12    16 ar  
    34    12    57 1   
    35    13    18 1   
    36    13    25 1   
    37    14    30 1   
    38    14    31 1   
    39    14    58 1   
    40    15    59 1   
    41    15    60 1   
    42    15    61 1   
    43    15    85 1   
    44    16    17 ar  
    45    16    62 1   
    46    17    40 1   
    47    17    41 ar  
    48    18    26 1   
    49    18    63 1   
    50    18    64 1   
    51    19    32 ar  
    52    19    35 ar  
    53    19    65 1   
    54    20    21 1   
    55    20    25 1   
    56    20    27 1   
    57    20    66 1   
    58    21    22 1   
    59    21    23 1   
    60    21    67 1   
    61    22    68 1   
    62    23    24 1   
    63    23    69 1   
    64    23    70 1   
    65    24    25 1   
    66    25    71 1   
    67    26    27 1   
    68    26    72 1   
    69    26    73 1   
    70    27    28 1   
    71    27    74 1   
    72    28    84 1   
    73    29    84 2   
    74    30    75 1   
    75    30    84 1   
    76    31    76 1   
    77    31    77 1   
    78    32    33 1   
    79    33    34 1   
    80    34    78 1   
    81    34    79 1   
    82    34    80 1   
    83    35    81 1   
    84    36    82 1   
    85    37    38 1   
    86    38    39 2   
    87    41    83 1   
    88    49    85 1   
@<TRIPOS>SUBSTRUCTURE
     1 52Z         1 TEMP              0 ****  ****    0 ROOT
