@<TRIPOS>MOLECULE
52Z
   85    88     1     0     0
SMALL
No Charge or Current Charge


@<TRIPOS>ATOM
      1 CAM         -6.3760    -0.4340     0.4620 ca         1 52Z       0.034000
      2 CAZ         -1.6300     0.3620     0.6820 c3         1 52Z       0.199800
      3 OAS         -4.2090     0.1940     2.5150 o          1 52Z      -0.551000
      4 CAN          2.2490     3.7050    -0.0230 ca         1 52Z      -0.121300
      5 CAY         -1.1460    -1.8630    -1.8950 c3         1 52Z      -0.084600
      6 CAL          2.3790     4.4580     1.1590 ca         1 52Z      -0.071000
      7 CAK         -5.3730    -1.3790     0.7500 ca         1 52Z      -0.337500
      8 CBA         -1.0270     1.4910    -0.1970 c3         1 52Z       0.122300
      9 CAV         -3.2230    -0.5040    -1.1030 c3         1 52Z       0.219800
     10 CAJ          3.6490     4.8660     1.6010 ca         1 52Z      -0.171000
     11 CAH         -9.9840    -1.7760    -1.4810 c3         1 52Z       0.146900
     12 CAI         -5.5640    -2.7330     0.4160 ca         1 52Z       0.034000
     13 OAB          6.6050    -1.9950    -0.6990 os         1 52Z      -0.480000
     14 CBC          0.2760     2.1070     0.3990 c3         1 52Z       0.115700
     15 CAX         -3.4750    -2.5250    -2.6430 c3         1 52Z      -0.084600
     16 CAF         -6.7540    -3.1330    -0.2140 ca         1 52Z      -0.200000
     17 CAD         -7.7550    -2.1970    -0.5100 ca         1 52Z       0.196100
     18 CAC          5.9910    -1.1210    -1.6690 c6         1 52Z       0.168600
     19 CAE          4.6730     3.7710    -0.3150 ca         1 52Z      -0.171000
     20 CBL          4.5860    -2.1660     0.6760 c5         1 52Z      -0.135700
     21 CBN          5.2880    -1.5570     1.9380 c5         1 52Z       0.155300
     22 OBO          4.4470    -1.6750     3.0940 oh         1 52Z      -0.701000
     23 CBK          6.5950    -2.4190     2.0630 c5         1 52Z       0.111600
     24 OBJ          6.4630    -3.4810     1.0950 os         1 52Z      -0.423000
     25 CBI          5.7370    -2.9340    -0.0120 c5         1 52Z       0.389300
     26 CAA          4.8640    -0.2890    -1.0230 c6         1 52Z      -0.146400
     27 CBH          3.8520    -1.1960    -0.2820 c6         1 52Z       0.212300
     28 OBG          2.8990    -0.4050     0.4490 os         1 52Z      -0.450100
     29 OBF          1.7030     0.2600    -1.3960 o          1 52Z      -0.557000
     30 NBD          1.2850     1.0830     0.7120 ns         1 52Z      -0.497900
     31 CBM          0.8720     3.2350    -0.4890 c3         1 52Z      -0.042100
     32 CAR          4.8000     4.5250     0.8720 ca         1 52Z       0.140100
     33 OBP          6.0210     4.9470     1.3590 os         1 52Z      -0.341100
     34 CBQ          7.2590     4.6400     0.6940 c3         1 52Z       0.148900
     35 CAP          3.4020     3.3670    -0.7580 ca         1 52Z      -0.071000
     36 OBB         -2.0450     2.4950    -0.3600 oh         1 52Z      -0.653000
     37 NAU         -3.0160    -0.0220     0.2960 n3         1 52Z      -0.779500
     38 SAQ         -3.8500    -0.8420     1.5420 sy         1 52Z       1.201600
     39 OAT         -3.0470    -2.0140     1.9040 o          1 52Z      -0.551000
     40 OAG         -8.8990    -2.6530    -1.1310 os         1 52Z      -0.336100
     41 CAO         -7.5640    -0.8410    -0.1690 ca         1 52Z      -0.200000
     42 H1          -6.2350     0.6160     0.7160 ha         1 52Z       0.133500
     43 H2          -0.9640    -0.5090     0.6880 h1         1 52Z       0.071700
     44 H3          -1.6320     0.7400     1.7150 h1         1 52Z       0.071700
     45 H4          -0.5040    -1.6110    -1.0480 hc         1 52Z       0.033700
     46 H5          -0.8210    -2.8450    -2.2610 hc         1 52Z       0.033700
     47 H6          -0.9710    -1.1310    -2.6930 hc         1 52Z       0.033700
     48 H7           1.4960     4.7250     1.7370 ha         1 52Z       0.113500
     49 H8          -2.7400    -2.5770    -0.6410 hc         1 52Z       0.075700
     50 H9          -0.7790     1.0530    -1.1740 h1         1 52Z       0.106700
     51 H10         -2.8200     0.2300    -1.8130 h1         1 52Z       0.051700
     52 H11         -4.2980    -0.5100    -1.3200 h1         1 52Z       0.051700
     53 H12          3.7430     5.4460     2.5150 ha         1 52Z       0.122500
     54 H13         -9.6490    -0.9990    -2.1800 h1         1 52Z       0.045700
     55 H14        -10.7900    -2.3420    -1.9640 h1         1 52Z       0.045700
     56 H15        -10.3980    -1.2920    -0.5870 h1         1 52Z       0.045700
     57 H16         -4.7990    -3.4770     0.6350 ha         1 52Z       0.133500
     58 H17          0.0060     2.5670     1.3590 h1         1 52Z       0.049700
     59 H18         -3.1080    -3.5290    -2.8880 hc         1 52Z       0.033700
     60 H19         -4.5300    -2.6150    -2.3580 hc         1 52Z       0.033700
     61 H20         -3.4170    -1.9080    -3.5480 hc         1 52Z       0.033700
     62 H21         -6.9000    -4.1770    -0.4750 ha         1 52Z       0.126000
     63 H22          6.7590    -0.4560    -2.0900 h1         1 52Z       0.052200
     64 H23          5.5840    -1.7310    -2.4900 h1         1 52Z       0.052200
     65 H24          5.5420     3.4900    -0.9020 ha         1 52Z       0.122500
     66 H25          3.8220    -2.8880     0.9820 hc         1 52Z       0.092700
     67 H26          5.5580    -0.5050     1.7720 h1         1 52Z       0.050700
     68 H27          4.8630    -1.1430     3.8110 ho         1 52Z       0.506000
     69 H28          7.4840    -1.8220     1.8160 h1         1 52Z       0.057700
     70 H29          6.7350    -2.8500     3.0630 h1         1 52Z       0.057700
     71 H30          5.3810    -3.7170    -0.6950 h2         1 52Z       0.078700
     72 H31          5.3000     0.4400    -0.3280 hc         1 52Z       0.067200
     73 H32          4.3570     0.2920    -1.8030 hc         1 52Z       0.067200
     74 H33          3.3090    -1.8010    -1.0260 h1         1 52Z       0.068700
     75 H34          1.6290     1.0130     1.6610 hn         1 52Z       0.336500
     76 H35          0.1780     4.0840    -0.5010 hc         1 52Z       0.071200
     77 H36          0.9260     2.8840    -1.5270 hc         1 52Z       0.071200
     78 H37          7.4080     3.5540     0.6300 h1         1 52Z       0.040700
     79 H38          7.2710     5.0590    -0.3210 h1         1 52Z       0.040700
     80 H39          8.1040     5.0670     1.2480 h1         1 52Z       0.040700
     81 H40          3.3160     2.7810    -1.6710 ha         1 52Z       0.113500
     82 H41         -2.8850     2.0020    -0.1990 ho         1 52Z       0.443000
     83 H42         -8.3190    -0.0920    -0.3840 ha         1 52Z       0.126000
     84 CBE          1.9390     0.3040    -0.2000 c          1 52Z       0.641100
     85 CAW         -2.6440    -1.9000    -1.4960 c3         1 52Z      -0.078700
@<TRIPOS>BOND
     1     1     7 ar  
     2     1    41 ar  
     3     1    42 1   
     4     2     8 1   
     5     2    37 1   
     6     2    43 1   
     7     2    44 1   
     8     3    38 2   
     9     4     6 ar  
    10     4    31 1   
    11     4    35 ar  
    12     5    45 1   
    13     5    46 1   
    14     5    47 1   
    15     5    85 1   
    16     6    10 ar  
    17     6    48 1   
    18     7    12 ar  
    19     7    38 1   
    20     8    14 1   
    21     8    36 1   
    22     8    50 1   
    23     9    37 1   
    24     9    51 1   
    25     9    52 1   
    26     9    85 1   
    27    10    32 ar  
    28    10    53 1   
    29    11    40 1   
    30    11    54 1   
    31    11    55 1   
    32    11    56 1   
    33    12    16 ar  
    34    12    57 1   
    35    13    18 1   
    36    13    25 1   
    37    14    30 1   
    38    14    31 1   
    39    14    58 1   
    40    15    59 1   
    41    15    60 1   
    42    15    61 1   
    43    15    85 1   
    44    16    17 ar  
    45    16    62 1   
    46    17    40 1   
    47    17    41 ar  
    48    18    26 1   
    49    18    63 1   
    50    18    64 1   
    51    19    32 ar  
    52    19    35 ar  
    53    19    65 1   
    54    20    21 1   
    55    20    25 1   
    56    20    27 1   
    57    20    66 1   
    58    21    22 1   
    59    21    23 1   
    60    21    67 1   
    61    22    68 1   
    62    23    24 1   
    63    23    69 1   
    64    23    70 1   
    65    24    25 1   
    66    25    71 1   
    67    26    27 1   
    68    26    72 1   
    69    26    73 1   
    70    27    28 1   
    71    27    74 1   
    72    28    84 1   
    73    29    84 2   
    74    30    75 1   
    75    30    84 1   
    76    31    76 1   
    77    31    77 1   
    78    32    33 1   
    79    33    34 1   
    80    34    78 1   
    81    34    79 1   
    82    34    80 1   
    83    35    81 1   
    84    36    82 1   
    85    37    38 1   
    86    38    39 2   
    87    41    83 1   
    88    49    85 1   
@<TRIPOS>SUBSTRUCTURE
     1 52Z         1 TEMP              0 ****  ****    0 ROOT
