@<TRIPOS>MOLECULE
530
   40    43     1     0     0
SMALL
No Charge or Current Charge


@<TRIPOS>ATOM
      1 F25         -6.9780    -2.2160     0.5750 f          1 530      -0.169000
      2 C21         -5.9990    -1.3370     0.2690 ca         1 530       0.203000
      3 C20         -5.9510    -0.7660    -1.0130 ca         1 530      -0.163000
      4 C19         -4.9330     0.1510    -1.3370 ca         1 530      -0.053000
      5 C22         -5.0420    -0.9970     1.2360 ca         1 530      -0.194000
      6 C23         -4.0260    -0.0830     0.9160 ca         1 530       0.207000
      7 F24         -3.1200     0.2520     1.8640 f          1 530      -0.157000
      8 C12         -3.9620     0.4880    -0.3770 ca         1 530       0.057100
      9 O11         -2.9780     1.3960    -0.7160 os         1 530      -0.325400
     10 C3          -1.6340     1.0950    -0.6580 ca         1 530       0.387300
     11 N2          -1.2560    -0.2120    -0.7250 nb         1 530      -0.273000
     12 N4          -0.7880     2.1500    -0.5510 nb         1 530      -0.212000
     13 C6           0.5230     1.8590    -0.5000 ca         1 530       0.194500
     14 N7           1.6500     2.6550    -0.3940 na         1 530      -0.161100
     15 N8           2.8250     1.8740    -0.3830 nc         1 530      -0.590100
     16 C9           2.3840     0.6200    -0.4800 cd         1 530       0.624800
     17 C5           0.9640     0.5760    -0.5560 ca         1 530      -0.398900
     18 C1           0.0640    -0.4810    -0.6720 ca         1 530       0.233900
     19 N10          3.2400    -0.4320    -0.5060 nu         1 530      -0.852400
     20 C13          4.6870    -0.3340    -0.2720 c6         1 530       0.219500
     21 C18          5.4050    -1.4790    -1.0220 c6         1 530      -0.132900
     22 C17          6.9120    -1.4770    -0.6760 c6         1 530       0.158100
     23 O16          7.0840    -1.5680     0.7550 os         1 530      -0.447000
     24 C15          6.5060    -0.4660     1.4880 c6         1 530       0.158100
     25 C14          4.9810    -0.4170     1.2440 c6         1 530      -0.132900
     26 H20         -6.7010    -1.0340    -1.7530 ha         1 530       0.141000
     27 H19         -4.8930     0.5960    -2.3280 ha         1 530       0.137000
     28 H22         -5.0890    -1.4360     2.2280 ha         1 530       0.152000
     29 HN7          1.6590     3.6720    -0.3320 hn         1 530       0.390000
     30 H1           0.3780    -1.5220    -0.7220 h4         1 530       0.027100
     31 HN10         2.7920    -1.3430    -0.5210 hn         1 530       0.472000
     32 H13          5.0820     0.6210    -0.6550 h1         1 530       0.078700
     33 H18          4.9720    -2.4510    -0.7470 hc         1 530       0.056950
     34 H18A         5.2730    -1.3650    -2.1060 hc         1 530       0.056950
     35 H17          7.4090    -2.3350    -1.1520 h1         1 530       0.047700
     36 H17A         7.3900    -0.5570    -1.0430 h1         1 530       0.047700
     37 H15          6.7130    -0.6000     2.5590 h1         1 530       0.047700
     38 H15A         6.9770     0.4740     1.1630 h1         1 530       0.047700
     39 H14          4.5490     0.4480     1.7630 hc         1 530       0.056950
     40 H14A         4.5150    -1.3130     1.6760 hc         1 530       0.056950
@<TRIPOS>BOND
     1     1     2 1   
     2     2     3 ar  
     3     2     5 ar  
     4     3     4 ar  
     5     3    26 1   
     6     4     8 ar  
     7     4    27 1   
     8     5     6 ar  
     9     5    28 1   
    10     6     7 1   
    11     6     8 ar  
    12     8     9 1   
    13     9    10 1   
    14    10    11 ar  
    15    10    12 ar  
    16    11    18 ar  
    17    12    13 ar  
    18    13    14 1   
    19    13    17 ar  
    20    14    15 1   
    21    14    29 1   
    22    15    16 2   
    23    16    17 1   
    24    16    19 1   
    25    17    18 ar  
    26    18    30 1   
    27    19    20 1   
    28    19    31 1   
    29    20    21 1   
    30    20    25 1   
    31    20    32 1   
    32    21    22 1   
    33    21    33 1   
    34    21    34 1   
    35    22    23 1   
    36    22    35 1   
    37    22    36 1   
    38    23    24 1   
    39    24    25 1   
    40    24    37 1   
    41    24    38 1   
    42    25    39 1   
    43    25    40 1   
@<TRIPOS>SUBSTRUCTURE
     1 530         1 TEMP              0 ****  ****    0 ROOT
