@<TRIPOS>MOLECULE
530
   40    43     1     0     0
SMALL
abcg2


@<TRIPOS>ATOM
      1 F25         -6.9830    -2.1240     0.0010 f          1 530      -0.169000
      2 C21         -5.9740    -1.2490    -0.0730 ca         1 530       0.203000
      3 C20         -5.7790    -0.5410    -1.2400 ca         1 530      -0.163000
      4 C19         -4.7230     0.3580    -1.3030 ca         1 530      -0.053000
      5 C22         -5.1610    -1.0900     1.0350 ca         1 530      -0.194000
      6 C23         -4.1260    -0.1840     0.9450 ca         1 530       0.207000
      7 F24         -3.3230     0.0030     1.9920 f          1 530      -0.157000
      8 C12         -3.8940     0.5420    -0.2130 ca         1 530       0.057100
      9 O11         -2.9020     1.4870    -0.2550 os         1 530      -0.325400
     10 C3          -1.6200     1.0940    -0.2940 ca         1 530       0.387300
     11 N2          -1.3730    -0.2120    -0.3730 nb         1 530      -0.273000
     12 N4          -0.7660     2.0900    -0.2580 nb         1 530      -0.212000
     13 C6           0.4970     1.6870    -0.3030 ca         1 530       0.194500
     14 N7           1.6080     2.4230    -0.3000 na         1 530      -0.161100
     15 N8           2.7370     1.6590    -0.3420 nc         1 530      -0.590100
     16 C9           2.3450     0.4140    -0.3930 cd         1 530       0.624800
     17 C5           0.9120     0.3430    -0.3690 ca         1 530      -0.398900
     18 C1          -0.1060    -0.5890    -0.4090 ca         1 530       0.233900
     19 N10          3.2050    -0.6370    -0.5100 nu         1 530      -0.852400
     20 C13          4.6330    -0.4480    -0.3510 c6         1 530       0.219500
     21 C18          5.3790    -1.6620    -0.8910 c6         1 530      -0.132900
     22 C17          6.8780    -1.4910    -0.6810 c6         1 530       0.158100
     23 O16          7.2010    -1.2640     0.6660 os         1 530      -0.447000
     24 C15          6.5850    -0.1050     1.1720 c6         1 530       0.158100
     25 C14          5.0680    -0.1840     1.0920 c6         1 530      -0.132900
     26 H20         -6.4310    -0.6860    -2.0900 ha         1 530       0.141000
     27 H19         -4.5500     0.9270    -2.2060 ha         1 530       0.137000
     28 H22         -5.3280    -1.6520     1.9430 ha         1 530       0.152000
     29 HN7          1.6890     3.4230    -0.2580 hn         1 530       0.390000
     30 H1           0.0800    -1.6570    -0.4740 h4         1 530       0.027100
     31 HN10         2.8520    -1.5140    -0.1610 hn         1 530       0.472000
     32 H13          4.9060     0.4220    -0.9570 h1         1 530       0.078700
     33 H18          5.0440    -2.5680    -0.3720 hc         1 530       0.056950
     34 H18A         5.1670    -1.8000    -1.9530 hc         1 530       0.056950
     35 H17          7.4150    -2.3880    -0.9920 h1         1 530       0.047700
     36 H17A         7.2390    -0.6620    -1.3110 h1         1 530       0.047700
     37 H15          6.9130     0.0030     2.2070 h1         1 530       0.047700
     38 H15A         6.9320     0.7860     0.6250 h1         1 530       0.047700
     39 H14          4.6290     0.7460     1.4570 hc         1 530       0.056950
     40 H14A         4.7090    -0.9950     1.7350 hc         1 530       0.056950
@<TRIPOS>BOND
     1     1     2 1   
     2     2     3 ar  
     3     2     5 ar  
     4     3     4 ar  
     5     3    26 1   
     6     4     8 ar  
     7     4    27 1   
     8     5     6 ar  
     9     5    28 1   
    10     6     7 1   
    11     6     8 ar  
    12     8     9 1   
    13     9    10 1   
    14    10    11 ar  
    15    10    12 ar  
    16    11    18 ar  
    17    12    13 ar  
    18    13    14 1   
    19    13    17 ar  
    20    14    15 1   
    21    14    29 1   
    22    15    16 2   
    23    16    17 1   
    24    16    19 1   
    25    17    18 ar  
    26    18    30 1   
    27    19    20 1   
    28    19    31 1   
    29    20    21 1   
    30    20    25 1   
    31    20    32 1   
    32    21    22 1   
    33    21    33 1   
    34    21    34 1   
    35    22    23 1   
    36    22    35 1   
    37    22    36 1   
    38    23    24 1   
    39    24    25 1   
    40    24    37 1   
    41    24    38 1   
    42    25    39 1   
    43    25    40 1   
@<TRIPOS>SUBSTRUCTURE
     1 530         1 TEMP              0 ****  ****    0 ROOT
