@<TRIPOS>MOLECULE
531
   35    36     1     0     0
SMALL
bcc


@<TRIPOS>ATOM
      1 C1          -0.9490    -0.5750    -1.0760 c3         1 531       0.215100
      2 C2          -2.3220    -0.3670    -0.4900 ca         1 531      -0.087300
      3 C3          -3.3740     0.0820    -1.2800 ca         1 531      -0.117000
      4 C4          -4.6500     0.2360    -0.7480 ca         1 531      -0.132500
      5 C5          -4.8860    -0.0540     0.5890 ca         1 531      -0.128000
      6 C6          -3.8380    -0.4980     1.3880 ca         1 531      -0.132500
      7 C7          -2.5680    -0.6530     0.8520 ca         1 531      -0.117000
      8 N8           0.1040    -0.0590    -0.2280 n3         1 531      -0.723600
      9 C9           1.4090    -0.5210    -0.6670 c6         1 531       0.178800
     10 C10          2.4860    -0.1080     0.3290 c6         1 531      -0.169700
     11 C11          2.4890     1.4190     0.5010 c6         1 531      -0.067400
     12 C12          1.0900     1.8930     0.8710 c6         1 531      -0.075400
     13 C13          0.0640     1.3900    -0.1300 c6         1 531       0.163800
     14 C14          3.8640    -0.5800    -0.0710 c          1 531       0.575100
     15 O15          4.1460    -0.8540    -1.2170 o          1 531      -0.522100
     16 C16          4.8680    -0.7010     1.0430 c3         1 531      -0.200100
     17 H12         -0.7830    -1.6510    -1.1980 h1         1 531       0.039200
     18 H11         -0.9160    -0.1460    -2.0920 h1         1 531       0.039200
     19 H31         -3.1980     0.3180    -2.3230 ha         1 531       0.135000
     20 H41         -5.4570     0.5870    -1.3780 ha         1 531       0.129000
     21 H51         -5.8770     0.0680     1.0060 ha         1 531       0.129000
     22 H61         -4.0130    -0.7240     2.4320 ha         1 531       0.129000
     23 H71         -1.7520    -0.9900     1.4800 ha         1 531       0.135000
     24 H91          1.3810    -1.6110    -0.7460 h1         1 531       0.043200
     25 H92          1.6600    -0.1340    -1.6680 h1         1 531       0.043200
     26 H101         2.2500    -0.5510     1.3050 hc         1 531       0.073700
     27 H112         3.2080     1.7260     1.2630 hc         1 531       0.044700
     28 H111         2.7990     1.8880    -0.4390 hc         1 531       0.044700
     29 H122         0.8300     1.5290     1.8680 hc         1 531       0.048200
     30 H121         1.0580     2.9840     0.9070 hc         1 531       0.048200
     31 H132         0.2510     1.8600    -1.1130 h1         1 531       0.037200
     32 H131        -0.9350     1.6980     0.1830 h1         1 531       0.037200
     33 H161         4.6550    -1.6180     1.5990 hc         1 531       0.061033
     34 H163         5.8860    -0.7570     0.6630 hc         1 531       0.061033
     35 H162         4.7860     0.1200     1.7550 hc         1 531       0.061033
@<TRIPOS>BOND
     1     1     2 1   
     2     1     8 1   
     3     1    17 1   
     4     1    18 1   
     5     2     3 ar  
     6     2     7 ar  
     7     3     4 ar  
     8     3    19 1   
     9     4     5 ar  
    10     4    20 1   
    11     5     6 ar  
    12     5    21 1   
    13     6     7 ar  
    14     6    22 1   
    15     7    23 1   
    16     8     9 1   
    17     8    13 1   
    18     9    10 1   
    19     9    24 1   
    20     9    25 1   
    21    10    11 1   
    22    10    14 1   
    23    10    26 1   
    24    11    12 1   
    25    11    27 1   
    26    11    28 1   
    27    12    13 1   
    28    12    29 1   
    29    12    30 1   
    30    13    31 1   
    31    13    32 1   
    32    14    15 2   
    33    14    16 1   
    34    16    33 1   
    35    16    34 1   
    36    16    35 1   
@<TRIPOS>SUBSTRUCTURE
     1 531         1 TEMP              0 ****  ****    0 ROOT
