@<TRIPOS>MOLECULE
531
   35    36     1     0     0
SMALL
No Charge or Current Charge


@<TRIPOS>ATOM
      1 C1          -0.9100    -0.7760    -0.9230 c3         1 531       0.215100
      2 C2          -2.3160    -0.5160    -0.3880 ca         1 531      -0.087300
      3 C3          -3.2560     0.1950    -1.1610 ca         1 531      -0.099000
      4 C4          -4.5500     0.4310    -0.6640 ca         1 531      -0.114500
      5 C5          -4.9120    -0.0420     0.6090 ca         1 531      -0.110000
      6 C6          -3.9800    -0.7510     1.3850 ca         1 531      -0.114500
      7 C7          -2.6860    -0.9870     0.8870 ca         1 531      -0.099000
      8 N8           0.1520    -0.0660    -0.1700 n3         1 531      -0.723600
      9 C9           1.5140    -0.4970    -0.5880 c6         1 531       0.178800
     10 C10          2.6030     0.1810     0.2710 c6         1 531      -0.169700
     11 C11          2.4830     1.7250     0.3240 c6         1 531      -0.067400
     12 C12          1.0380     2.1260     0.6950 c6         1 531      -0.075400
     13 C13          0.0060     1.4190    -0.2190 c6         1 531       0.163800
     14 C14          4.0170    -0.3210    -0.0670 c          1 531       0.575100
     15 O15          4.5220    -0.1110    -1.1630 o          1 531      -0.522100
     16 C16          4.7680    -1.0910     1.0190 c3         1 531      -0.200100
     17 H12         -0.7320    -1.8600    -0.8780 h1         1 531       0.039200
     18 H11         -0.8680    -0.4940    -1.9840 h1         1 531       0.039200
     19 H31         -2.9840     0.5660    -2.1470 ha         1 531       0.117000
     20 H41         -5.2710     0.9810    -1.2640 ha         1 531       0.111000
     21 H51         -5.9130     0.1420     0.9940 ha         1 531       0.111000
     22 H61         -4.2580    -1.1160     2.3710 ha         1 531       0.111000
     23 H71         -1.9660    -1.5330     1.4930 ha         1 531       0.117000
     24 H91          1.6130    -1.5890    -0.4920 h1         1 531       0.043200
     25 H92          1.6830    -0.2480    -1.6470 h1         1 531       0.043200
     26 H101         2.4200    -0.1650     1.2980 hc         1 531       0.073700
     27 H112         3.1910     2.1430     1.0530 hc         1 531       0.044700
     28 H111         2.7440     2.1530    -0.6550 hc         1 531       0.044700
     29 H122         0.8360     1.8620     1.7430 hc         1 531       0.048200
     30 H121         0.9180     3.2150     0.6190 hc         1 531       0.048200
     31 H132         0.1310     1.7800    -1.2510 h1         1 531       0.037200
     32 H131        -1.0010     1.7200     0.1070 h1         1 531       0.037200
     33 H161         4.1550    -1.9410     1.3410 hc         1 531       0.061033
     34 H163         5.7660    -1.4100     0.6990 hc         1 531       0.061033
     35 H162         4.8090    -0.4780     1.9260 hc         1 531       0.061033
@<TRIPOS>BOND
     1     1     2 1   
     2     1     8 1   
     3     1    17 1   
     4     1    18 1   
     5     2     3 ar  
     6     2     7 ar  
     7     3     4 ar  
     8     3    19 1   
     9     4     5 ar  
    10     4    20 1   
    11     5     6 ar  
    12     5    21 1   
    13     6     7 ar  
    14     6    22 1   
    15     7    23 1   
    16     8     9 1   
    17     8    13 1   
    18     9    10 1   
    19     9    24 1   
    20     9    25 1   
    21    10    11 1   
    22    10    14 1   
    23    10    26 1   
    24    11    12 1   
    25    11    27 1   
    26    11    28 1   
    27    12    13 1   
    28    12    29 1   
    29    12    30 1   
    30    13    31 1   
    31    13    32 1   
    32    14    15 2   
    33    14    16 1   
    34    16    33 1   
    35    16    34 1   
    36    16    35 1   
@<TRIPOS>SUBSTRUCTURE
     1 531         1 TEMP              0 ****  ****    0 ROOT
