@<TRIPOS>MOLECULE
532
   41    44     1     0     0
SMALL
No Charge or Current Charge


@<TRIPOS>ATOM
      1 C1           2.7500     3.7890     1.0840 c3         1 532       0.094300
      2 N1           2.1710     2.5840     0.4510 n          1 532      -0.384300
      3 O1           2.4950     1.1230     2.2290 o          1 532      -0.504000
      4 S1           4.0250    -2.5590    -0.7980 ss         1 532       0.193000
      5 C2           2.0920     1.3690     1.0970 c          1 532       0.553000
      6 N2           1.1180     1.3750    -1.1550 n2         1 532      -0.690900
      7 C3           1.3770     0.4710     0.0300 c5         1 532       0.183800
      8 N3           1.6130     3.5930    -1.5720 nv         1 532      -1.033200
      9 C4           1.6030     2.4910    -0.7980 c2         1 532       0.671800
     10 N4          -5.2490     1.3130    -0.8940 nb         1 532      -0.668000
     11 C5           0.1250    -0.2100     0.6290 ca         1 532      -0.073300
     12 C6           0.2570    -1.1130     1.7070 ca         1 532      -0.073000
     13 C7          -0.8680    -1.7390     2.2640 ca         1 532      -0.117000
     14 C8          -2.1470    -1.4720     1.7550 ca         1 532      -0.092000
     15 C9          -2.3270    -0.5730     0.6770 cp         1 532      -0.046000
     16 C10         -1.1740     0.0480     0.1300 ca         1 532      -0.072000
     17 C11         -3.6920    -0.2840     0.1320 cp         1 532      -0.078000
     18 C12         -4.7090    -1.2710     0.1130 ca         1 532      -0.068000
     19 C13         -5.9710    -0.9440    -0.4090 ca         1 532      -0.164000
     20 C14         -6.1980     0.3510    -0.8990 ca         1 532       0.332900
     21 C15         -4.0310     0.9950    -0.3910 ca         1 532       0.344900
     22 C16          2.2290    -0.7150    -0.4300 cc         1 532      -0.091300
     23 C17          1.7340    -1.5260    -1.4860 cc         1 532      -0.095000
     24 C18          2.5690    -2.5620    -1.8130 cd         1 532      -0.253000
     25 C19          3.4450    -1.1190     0.0600 cd         1 532      -0.233000
     26 H1           3.7230     4.0140     0.6290 h1         1 532       0.051033
     27 H1A          2.0780     4.6450     0.9450 h1         1 532       0.051033
     28 H1B          2.8910     3.6320     2.1610 h1         1 532       0.051033
     29 HN3          2.4480     4.1540    -1.4630 hn         1 532       0.490500
     30 HN3A         1.3810     3.3830    -2.5350 hn         1 532       0.490500
     31 H6           1.2400    -1.3360     2.1170 ha         1 532       0.128000
     32 H7          -0.7490    -2.4300     3.0950 ha         1 532       0.115000
     33 H8          -3.0060    -1.9580     2.2120 ha         1 532       0.113000
     34 H10         -1.2980     0.7280    -0.7070 ha         1 532       0.132000
     35 H12         -4.5200    -2.2760     0.4830 ha         1 532       0.120000
     36 H13         -6.7670    -1.6830    -0.4380 ha         1 532       0.122000
     37 H14         -7.1690     0.6280    -1.3090 h4         1 532       0.018100
     38 H15         -3.2980     1.8010    -0.3930 h4         1 532       0.021100
     39 H17          0.7840    -1.3330    -1.9780 ha         1 532       0.148000
     40 H18          2.4340    -3.3220    -2.5730 h4         1 532       0.150000
     41 H19          4.0390    -0.6870     0.8560 h4         1 532       0.159000
@<TRIPOS>BOND
     1     1     2 1   
     2     1    26 1   
     3     1    27 1   
     4     1    28 1   
     5     2     5 1   
     6     2     9 1   
     7     3     5 2   
     8     4    24 1   
     9     4    25 1   
    10     5     7 1   
    11     6     7 1   
    12     6     9 2   
    13     7    11 1   
    14     7    22 1   
    15     8     9 1   
    16     8    29 1   
    17     8    30 1   
    18    10    20 ar  
    19    10    21 ar  
    20    11    12 ar  
    21    11    16 ar  
    22    12    13 ar  
    23    12    31 1   
    24    13    14 ar  
    25    13    32 1   
    26    14    15 ar  
    27    14    33 1   
    28    15    16 ar  
    29    15    17 1   
    30    16    34 1   
    31    17    18 ar  
    32    17    21 ar  
    33    18    19 ar  
    34    18    35 1   
    35    19    20 ar  
    36    19    36 1   
    37    20    37 1   
    38    21    38 1   
    39    22    23 1   
    40    22    25 2   
    41    23    24 2   
    42    23    39 1   
    43    24    40 1   
    44    25    41 1   
@<TRIPOS>SUBSTRUCTURE
     1 532         1 TEMP              0 ****  ****    0 ROOT
