@<TRIPOS>MOLECULE
532
   41    44     1     0     0
SMALL
abcg2


@<TRIPOS>ATOM
      1 C1           2.3630     3.7150     0.9520 c3         1 532       0.094300
      2 N1           1.9370     2.4620     0.3760 n          1 532      -0.384300
      3 O1           2.2680     1.0460     2.1530 o          1 532      -0.504000
      4 S1           4.4270    -2.3130    -0.5290 ss         1 532       0.193000
      5 C2           1.9250     1.2600     1.0140 c          1 532       0.553000
      6 N2           1.0920     1.0750    -1.1930 n2         1 532      -0.690900
      7 C3           1.3670     0.2720    -0.0210 c5         1 532       0.183800
      8 N3           1.3100     3.3450    -1.7160 nv         1 532      -1.033200
      9 C4           1.4380     2.2770    -0.9110 c2         1 532       0.671800
     10 N4          -5.0800     1.6570    -0.5120 nb         1 532      -0.668000
     11 C5           0.1130    -0.3690     0.5600 ca         1 532      -0.073300
     12 C6           0.2260    -1.3470     1.5460 ca         1 532      -0.073000
     13 C7          -0.9130    -1.9170     2.0910 ca         1 532      -0.117000
     14 C8          -2.1720    -1.5220     1.6620 ca         1 532      -0.092000
     15 C9          -2.3020    -0.5460     0.6760 cp         1 532      -0.046000
     16 C10         -1.1470     0.0220     0.1330 ca         1 532      -0.072000
     17 C11         -3.6340    -0.1230     0.2090 cp         1 532      -0.078000
     18 C12         -4.6800    -1.0290     0.0490 ca         1 532      -0.068000
     19 C13         -5.9120    -0.5750    -0.3910 ca         1 532      -0.164000
     20 C14         -6.0630     0.7770    -0.6630 ca         1 532       0.332900
     21 C15         -3.9060     1.2140    -0.0860 ca         1 532       0.344900
     22 C16          2.3800    -0.7910    -0.3810 cc         1 532      -0.091300
     23 C17          2.1260    -1.7110    -1.4420 cc         1 532      -0.095000
     24 C18          3.1440    -2.5900    -1.6320 cd         1 532      -0.253000
     25 C19          3.5920    -1.0050     0.2030 cd         1 532      -0.233000
     26 H1           3.2620     4.0850     0.4610 h1         1 532       0.051033
     27 H1A          1.5750     4.4620     0.8740 h1         1 532       0.051033
     28 H1B          2.5860     3.5570     2.0030 h1         1 532       0.051033
     29 HN3          1.8740     4.1640    -1.5600 hn         1 532       0.490500
     30 HN3A         1.0900     3.1580    -2.6810 hn         1 532       0.490500
     31 H6           1.2020    -1.6750     1.8790 ha         1 532       0.128000
     32 H7          -0.8230    -2.6740     2.8590 ha         1 532       0.115000
     33 H8          -3.0530    -1.9660     2.1080 ha         1 532       0.113000
     34 H10         -1.2290     0.7590    -0.6550 ha         1 532       0.132000
     35 H12         -4.5300    -2.0830     0.2480 ha         1 532       0.120000
     36 H13         -6.7390    -1.2560    -0.5320 ha         1 532       0.122000
     37 H14         -7.0130     1.1630    -1.0140 h4         1 532       0.018100
     38 H15         -3.1330     1.9650     0.0460 h4         1 532       0.021100
     39 H17          1.2210    -1.7080    -2.0330 ha         1 532       0.148000
     40 H18          3.2090    -3.3820    -2.3620 h4         1 532       0.150000
     41 H19          4.0470    -0.4780     1.0260 h4         1 532       0.159000
@<TRIPOS>BOND
     1     1     2 1   
     2     1    26 1   
     3     1    27 1   
     4     1    28 1   
     5     2     5 1   
     6     2     9 1   
     7     3     5 2   
     8     4    24 1   
     9     4    25 1   
    10     5     7 1   
    11     6     7 1   
    12     6     9 2   
    13     7    11 1   
    14     7    22 1   
    15     8     9 1   
    16     8    29 1   
    17     8    30 1   
    18    10    20 ar  
    19    10    21 ar  
    20    11    12 ar  
    21    11    16 ar  
    22    12    13 ar  
    23    12    31 1   
    24    13    14 ar  
    25    13    32 1   
    26    14    15 ar  
    27    14    33 1   
    28    15    16 ar  
    29    15    17 1   
    30    16    34 1   
    31    17    18 ar  
    32    17    21 ar  
    33    18    19 ar  
    34    18    35 1   
    35    19    20 ar  
    36    19    36 1   
    37    20    37 1   
    38    21    38 1   
    39    22    23 1   
    40    22    25 2   
    41    23    24 2   
    42    23    39 1   
    43    24    40 1   
    44    25    41 1   
@<TRIPOS>SUBSTRUCTURE
     1 532         1 TEMP              0 ****  ****    0 ROOT
