@<TRIPOS>MOLECULE
533
   46    49     1     0     0
SMALL
No Charge or Current Charge


@<TRIPOS>ATOM
      1 F23         -5.9680    -3.7040    -0.8350 f          1 533      -0.173000
      2 C19         -5.3160    -2.6170    -0.3680 ca         1 533       0.177000
      3 C18         -3.9130    -2.6070    -0.3310 ca         1 533      -0.142000
      4 C17         -3.2270    -1.4780     0.1550 ca         1 533      -0.116000
      5 C20         -6.0450    -1.5110     0.0860 ca         1 533      -0.177000
      6 C21         -5.3660    -0.3820     0.5730 ca         1 533       0.196000
      7 F22         -6.0840     0.6770     1.0120 f          1 533      -0.156000
      8 C16         -3.9540    -0.3420     0.5980 ca         1 533       0.074100
      9 O15         -3.3370     0.7940     1.1090 os         1 533      -0.208200
     10 C12         -2.1150     1.0150     0.5110 cc         1 533      -0.045100
     11 C11         -1.9430     1.2430    -0.9580 c          1 533       0.555200
     12 O14         -2.8880     1.2990    -1.7360 o          1 533      -0.511000
     13 N10         -0.6000     1.3980    -1.3910 n          1 533      -0.361300
     14 C24         -0.3250     1.6250    -2.8370 c3         1 533       0.080300
     15 C9           0.5100     1.3490    -0.4750 ca         1 533       0.306900
     16 N5           1.7570     1.5090    -0.9600 nb         1 533      -0.302000
     17 C13         -1.0670     0.9620     1.3960 cd         1 533      -0.058200
     18 C8           0.2920     1.1370     0.8950 ca         1 533      -0.292800
     19 C6           1.4150     1.0990     1.7390 ca         1 533       0.211900
     20 N7           2.6580     1.2590     1.2530 nb         1 533      -0.263000
     21 C4           2.7600     1.4490    -0.0740 ca         1 533       0.432900
     22 N1           4.0250     1.6090    -0.6160 nu         1 533      -0.916100
     23 C2           5.3250     1.3030     0.0190 c3         1 533       0.233500
     24 C26          6.3920     2.2180    -0.6120 c3         1 533      -0.109100
     25 C3           5.7000    -0.1950    -0.1310 c3         1 533       0.063600
     26 N25          4.8360    -1.1160     0.6240 na         1 533       0.245600
     27 N30          3.9460    -1.9530     0.0320 nc         1 533      -0.526800
     28 C29          3.4360    -2.5670     1.0840 cd         1 533       0.478900
     29 N28          4.0040    -2.1390     2.2680 nd         1 533      -0.382000
     30 N27          4.8900    -1.2310     1.9770 nc         1 533      -0.163800
     31 H18         -3.3590    -3.4770    -0.6740 ha         1 533       0.135000
     32 H17         -2.1410    -1.5050     0.1960 ha         1 533       0.126000
     33 H20         -7.1310    -1.5260     0.0640 ha         1 533       0.151000
     34 H24         -1.2400     1.6030    -3.4410 h1         1 533       0.060367
     35 H24A         0.1540     2.6030    -2.9720 h1         1 533       0.060367
     36 H24B         0.3500     0.8440    -3.2110 h1         1 533       0.060367
     37 H13         -1.2550     0.7840     2.4530 ha         1 533       0.207000
     38 H6           1.3210     0.9400     2.8120 h4         1 533       0.034100
     39 HN1          4.0250     1.7820    -1.6210 hn         1 533       0.509000
     40 H2           5.2930     1.5460     1.0920 h1         1 533       0.101700
     41 H26          7.3670     2.0550    -0.1370 hc         1 533       0.052367
     42 H26A         6.4980     2.0210    -1.6860 hc         1 533       0.052367
     43 H26B         6.1250     3.2730    -0.4780 hc         1 533       0.052367
     44 H3           5.6730    -0.4740    -1.1910 h1         1 533       0.083700
     45 H3A          6.7270    -0.3430     0.2220 h1         1 533       0.083700
     46 H29          2.6660    -3.3290     1.0480 h5         1 533       0.074100
@<TRIPOS>BOND
     1     1     2 1   
     2     2     3 ar  
     3     2     5 ar  
     4     3     4 ar  
     5     3    31 1   
     6     4     8 ar  
     7     4    32 1   
     8     5     6 ar  
     9     5    33 1   
    10     6     7 1   
    11     6     8 ar  
    12     8     9 1   
    13     9    10 1   
    14    10    11 1   
    15    10    17 2   
    16    11    12 2   
    17    11    13 1   
    18    13    14 1   
    19    13    15 1   
    20    14    34 1   
    21    14    35 1   
    22    14    36 1   
    23    15    16 ar  
    24    15    18 ar  
    25    16    21 ar  
    26    17    18 1   
    27    17    37 1   
    28    18    19 ar  
    29    19    20 ar  
    30    19    38 1   
    31    20    21 ar  
    32    21    22 1   
    33    22    23 1   
    34    22    39 1   
    35    23    24 1   
    36    23    25 1   
    37    23    40 1   
    38    24    41 1   
    39    24    42 1   
    40    24    43 1   
    41    25    26 1   
    42    25    44 1   
    43    25    45 1   
    44    26    27 1   
    45    26    30 1   
    46    27    28 2   
    47    28    29 1   
    48    28    46 1   
    49    29    30 2   
@<TRIPOS>SUBSTRUCTURE
     1 533         1 TEMP              0 ****  ****    0 ROOT
