@<TRIPOS>MOLECULE
533
   46    49     1     0     0
SMALL
bcc


@<TRIPOS>ATOM
      1 F23         -6.4930    -3.3790    -0.8010 f          1 533      -0.137900
      2 C19         -5.6620    -2.4240    -0.3620 ca         1 533       0.141900
      3 C18         -4.3060    -2.6680    -0.3210 ca         1 533      -0.160000
      4 C17         -3.4590    -1.6680     0.1390 ca         1 533      -0.134000
      5 C20         -6.2010    -1.2140     0.0370 ca         1 533      -0.195000
      6 C21         -5.3370    -0.2360     0.4770 ca         1 533       0.160900
      7 F22         -5.8240     0.9470     0.8600 f          1 533      -0.120900
      8 C16         -3.9640    -0.4420     0.5370 ca         1 533       0.074100
      9 O15         -3.2050     0.5740     1.0330 os         1 533      -0.208200
     10 C12         -1.9290     0.6990     0.5790 cc         1 533      -0.045100
     11 C11         -1.7750     0.9970    -0.8460 c          1 533       0.697700
     12 O14         -2.7320     1.0880    -1.5910 o          1 533      -0.586500
     13 N10         -0.4720     1.1670    -1.2940 n          1 533      -0.428300
     14 C24         -0.2460     1.4450    -2.7060 c3         1 533       0.080300
     15 C9           0.6090     1.1320    -0.4560 ca         1 533       0.635200
     16 N5           1.8020     1.3460    -0.9780 nb         1 533      -0.828000
     17 C13         -0.8820     0.6420     1.4190 cd         1 533      -0.008200
     18 C8           0.4240     0.8790     0.9150 ca         1 533      -0.423400
     19 C6           1.5870     0.8910     1.6810 ca         1 533       0.540200
     20 N7           2.7800     1.1090     1.1810 nb         1 533      -0.789000
     21 C4           2.8400     1.3130    -0.1430 ca         1 533       0.958900
     22 N1           4.0520     1.5170    -0.6910 nu         1 533      -0.860900
     23 C2           5.3110     1.4370     0.0090 c3         1 533       0.233500
     24 C26          6.3270     2.3580    -0.6500 c3         1 533      -0.109100
     25 C3           5.8610     0.0050     0.0410 c3         1 533       0.034300
     26 N25          4.9330    -0.9290     0.6350 na         1 533       0.274900
     27 N30          4.0090    -1.5640    -0.0460 nc         1 533      -0.526800
     28 C29          3.3570    -2.1880     0.9100 cd         1 533       0.478900
     29 N28          3.8760    -1.9350     2.1190 nd         1 533      -0.382000
     30 N27          4.8680    -1.1330     1.9210 nc         1 533      -0.163800
     31 H18         -3.9080    -3.6220    -0.6340 ha         1 533       0.153000
     32 H17         -2.3950    -1.8590     0.1840 ha         1 533       0.144000
     33 H20         -7.2660    -1.0320    -0.0010 ha         1 533       0.169000
     34 H24         -1.1720     1.3040    -3.2480 h1         1 533       0.060367
     35 H24A         0.0960     2.4690    -2.8450 h1         1 533       0.060367
     36 H24B         0.5080     0.7700    -3.1010 h1         1 533       0.060367
     37 H13         -1.0310     0.4390     2.4720 ha         1 533       0.157000
     38 H6           1.5300     0.7170     2.7510 h4         1 533       0.034100
     39 HN1          4.0680     1.6120    -1.6930 hn         1 533       0.453800
     40 H2           5.1490     1.7610     1.0370 h1         1 533       0.101700
     41 H26          7.2740     2.3350    -0.1130 hc         1 533       0.052367
     42 H26A         6.5260     2.0670    -1.6830 hc         1 533       0.052367
     43 H26B         5.9660     3.3840    -0.6490 hc         1 533       0.052367
     44 H3           6.0860    -0.3520    -0.9630 h1         1 533       0.083700
     45 H3A          6.7770    -0.0290     0.6270 h1         1 533       0.083700
     46 H29          2.5130    -2.8310     0.7340 h5         1 533       0.074100
@<TRIPOS>BOND
     1     1     2 1   
     2     2     3 ar  
     3     2     5 ar  
     4     3     4 ar  
     5     3    31 1   
     6     4     8 ar  
     7     4    32 1   
     8     5     6 ar  
     9     5    33 1   
    10     6     7 1   
    11     6     8 ar  
    12     8     9 1   
    13     9    10 1   
    14    10    11 1   
    15    10    17 2   
    16    11    12 2   
    17    11    13 1   
    18    13    14 1   
    19    13    15 1   
    20    14    34 1   
    21    14    35 1   
    22    14    36 1   
    23    15    16 ar  
    24    15    18 ar  
    25    16    21 ar  
    26    17    18 1   
    27    17    37 1   
    28    18    19 ar  
    29    19    20 ar  
    30    19    38 1   
    31    20    21 ar  
    32    21    22 1   
    33    22    23 1   
    34    22    39 1   
    35    23    24 1   
    36    23    25 1   
    37    23    40 1   
    38    24    41 1   
    39    24    42 1   
    40    24    43 1   
    41    25    26 1   
    42    25    44 1   
    43    25    45 1   
    44    26    27 1   
    45    26    30 1   
    46    27    28 2   
    47    28    29 1   
    48    28    46 1   
    49    29    30 2   
@<TRIPOS>SUBSTRUCTURE
     1 533         1 TEMP              0 ****  ****    0 ROOT
