@<TRIPOS>MOLECULE
534
   66    70     1     0     0
SMALL
No Charge or Current Charge


@<TRIPOS>ATOM
      1 C26         -0.6650    -3.8340     2.5910 c3         1 534      -0.084100
      2 C25          0.4030    -3.8810     1.4710 c3         1 534      -0.018400
      3 C27         -0.2460    -3.9220     0.0710 c3         1 534      -0.084100
      4 C12          1.4230    -2.7410     1.5500 ca         1 534      -0.062300
      5 C13          2.7780    -3.0020     1.2660 ca         1 534      -0.119000
      6 C14          3.7260    -1.9660     1.2760 ca         1 534      -0.079000
      7 C11          1.0380    -1.4210     1.8590 ca         1 534      -0.119000
      8 C10          1.9880    -0.3870     1.8790 ca         1 534      -0.079000
      9 C5           3.3490    -0.6300     1.5640 cp         1 534      -0.146500
     10 C3           4.3520     0.4900     1.5160 cp         1 534       0.341500
     11 N1           5.5660     0.2090     2.0750 nb         1 534      -0.622000
     12 C2           6.4670     1.2260     2.0900 ca         1 534       0.256900
     13 C1           6.1780     2.5050     1.5480 ca         1 534       0.319900
     14 N2           4.9860     2.8030     0.9630 nb         1 534      -0.702000
     15 C4           4.0710     1.8000     0.9360 ca         1 534       0.552900
     16 N3           2.8780     2.1680     0.2610 nh         1 534      -0.772300
     17 C9           2.3430     1.3400    -0.8600 c6         1 534       0.209300
     18 C8           0.7870     1.4000    -0.9290 c6         1 534       0.176800
     19 C6           2.3890     3.5800     0.2020 c6         1 534       0.209300
     20 C7           0.8320     3.6310     0.1240 c6         1 534       0.176800
     21 N4           0.2580     2.7980    -0.9770 n3         1 534      -0.700500
     22 S1          -1.4330     2.9580    -1.1360 sy         1 534       1.142600
     23 O1          -2.0030     2.7980     0.2060 o          1 534      -0.532000
     24 O2          -1.6490     4.1660    -1.9410 o          1 534      -0.532000
     25 C15         -1.8970     1.5280    -2.1370 ca         1 534      -0.297500
     26 C20         -2.3310     0.3380    -1.5130 ca         1 534      -0.018000
     27 C16         -1.8170     1.5920    -3.5410 ca         1 534      -0.021000
     28 C17         -2.1750     0.4740    -4.3100 ca         1 534      -0.127000
     29 C18         -2.6090    -0.7070    -3.6860 ca         1 534      -0.059000
     30 C19         -2.6950    -0.8040    -2.2730 cp         1 534      -0.019000
     31 C21         -3.1510    -2.0690    -1.6060 cp         1 534      -0.230000
     32 C22         -3.0290    -3.3410    -2.2250 ca         1 534       0.169900
     33 N5          -3.4360    -4.4780    -1.6280 nb         1 534      -0.247500
     34 C23         -3.9650    -4.3450    -0.4040 ca         1 534       0.389900
     35 N7          -4.3800    -5.4870     0.1960 nv         1 534      -1.067900
     36 N6          -4.1390    -3.2150     0.2910 nb         1 534      -0.247500
     37 C24         -3.7320    -2.0800    -0.3100 ca         1 534       0.169900
     38 H261        -1.3510    -2.9870     2.4590 hc         1 534       0.035033
     39 H262        -1.2650    -4.7520     2.5850 hc         1 534       0.035033
     40 H263        -0.1890    -3.7470     3.5750 hc         1 534       0.035033
     41 H25          0.9380    -4.8310     1.6010 hc         1 534       0.051700
     42 H271        -0.8020    -2.9970    -0.1260 hc         1 534       0.035033
     43 H272         0.5200    -4.0320    -0.7070 hc         1 534       0.035033
     44 H273        -0.9380    -4.7680    -0.0110 hc         1 534       0.035033
     45 H13          3.0980    -4.0120     1.0180 ha         1 534       0.113000
     46 H11         -0.0000    -1.1830     2.0740 ha         1 534       0.113000
     47 H14          4.7620    -2.1960     1.0340 ha         1 534       0.124500
     48 H10          1.6610     0.6210     2.1260 ha         1 534       0.124500
     49 H2           7.4360     1.0180     2.5410 h4         1 534       0.033100
     50 H1           6.9210     3.3000     1.5760 h4         1 534       0.029100
     51 H91C         2.7490     1.7080    -1.8140 h1         1 534       0.060700
     52 H92C         2.6530     0.2900    -0.7720 h1         1 534       0.060700
     53 H61C         2.7050     4.1420     1.0930 h1         1 534       0.060700
     54 H62C         2.8100     4.0890    -0.6770 h1         1 534       0.060700
     55 H81C         0.4880     0.8320    -1.8200 h1         1 534       0.064450
     56 H82C         0.3770     0.8700    -0.0570 h1         1 534       0.064450
     57 H71C         0.4380     3.2960     1.0950 h1         1 534       0.064450
     58 H72C         0.5310     4.6820     0.0060 h1         1 534       0.064450
     59 H20         -2.3700     0.2920    -0.4270 ha         1 534       0.133000
     60 H16         -1.4770     2.5000    -4.0370 ha         1 534       0.138000
     61 H17         -2.1170     0.5240    -5.3950 ha         1 534       0.120000
     62 H18         -2.8930    -1.5500    -4.3100 ha         1 534       0.117000
     63 H22         -2.5830    -3.4560    -3.2110 h4         1 534       0.024600
     64 H24         -3.8890    -1.1620     0.2540 h4         1 534       0.024600
     65 H71N        -4.4800    -6.3240    -0.3740 hn         1 534       0.506500
     66 H72N        -4.9870    -5.4170     1.0100 hn         1 534       0.506500
@<TRIPOS>BOND
     1     1     2 1   
     2     1    38 1   
     3     1    39 1   
     4     1    40 1   
     5     2     3 1   
     6     2     4 1   
     7     2    41 1   
     8     3    42 1   
     9     3    43 1   
    10     3    44 1   
    11     4     5 ar  
    12     4     7 ar  
    13     5     6 ar  
    14     5    45 1   
    15     6     9 ar  
    16     6    47 1   
    17     7     8 ar  
    18     7    46 1   
    19     8     9 ar  
    20     8    48 1   
    21     9    10 1   
    22    10    11 ar  
    23    10    15 ar  
    24    11    12 ar  
    25    12    13 ar  
    26    12    49 1   
    27    13    14 ar  
    28    13    50 1   
    29    14    15 ar  
    30    15    16 1   
    31    16    17 1   
    32    16    19 1   
    33    17    18 1   
    34    17    51 1   
    35    17    52 1   
    36    18    21 1   
    37    18    55 1   
    38    18    56 1   
    39    19    20 1   
    40    19    53 1   
    41    19    54 1   
    42    20    21 1   
    43    20    57 1   
    44    20    58 1   
    45    21    22 1   
    46    22    23 2   
    47    22    24 2   
    48    22    25 1   
    49    25    26 ar  
    50    25    27 ar  
    51    26    30 ar  
    52    26    59 1   
    53    27    28 ar  
    54    27    60 1   
    55    28    29 ar  
    56    28    61 1   
    57    29    30 ar  
    58    29    62 1   
    59    30    31 1   
    60    31    32 ar  
    61    31    37 ar  
    62    32    33 ar  
    63    32    63 1   
    64    33    34 ar  
    65    34    35 1   
    66    34    36 ar  
    67    35    65 1   
    68    35    66 1   
    69    36    37 ar  
    70    37    64 1   
@<TRIPOS>SUBSTRUCTURE
     1 534         1 TEMP              0 ****  ****    0 ROOT
