@<TRIPOS>MOLECULE
534
   66    70     1     0     0
SMALL
abcg2


@<TRIPOS>ATOM
      1 C26          1.6750    -5.2950    -1.2240 c3         1 534      -0.084100
      2 C25          2.4080    -4.1870    -1.9790 c3         1 534      -0.018400
      3 C27          1.5660    -3.6620    -3.1430 c3         1 534      -0.084100
      4 C12          2.8210    -3.0640    -1.0590 ca         1 534      -0.062300
      5 C13          4.1570    -2.6950    -0.9380 ca         1 534      -0.119000
      6 C14          4.5450    -1.6510    -0.1100 ca         1 534      -0.079000
      7 C11          1.8790    -2.3540    -0.3140 ca         1 534      -0.119000
      8 C10          2.2570    -1.3060     0.5060 ca         1 534      -0.079000
      9 C5           3.5980    -0.9310     0.6120 cp         1 534      -0.146500
     10 C3           4.0220     0.1630     1.5120 cp         1 534       0.341500
     11 N1           5.0710    -0.0690     2.2800 nb         1 534      -0.622000
     12 C2           5.4140     0.8390     3.1900 ca         1 534       0.256900
     13 C1           4.6630     1.9840     3.3600 ca         1 534       0.319900
     14 N2           3.6450     2.2690     2.5560 nb         1 534      -0.702000
     15 C4           3.3370     1.4030     1.6040 ca         1 534       0.552900
     16 N3           2.3120     1.7140     0.7340 nh         1 534      -0.772300
     17 C9           2.5840     1.7320    -0.6930 c6         1 534       0.209300
     18 C8           1.3120     1.4610    -1.4680 c6         1 534       0.176800
     19 C6           1.3610     2.7400     1.1000 c6         1 534       0.209300
     20 C7           0.0540     2.4660     0.3780 c6         1 534       0.176800
     21 N4           0.2830     2.4280    -1.0690 n3         1 534      -0.700500
     22 S1          -1.0750     2.4420    -2.0240 sy         1 534       1.142600
     23 O1          -1.9690     3.4520    -1.4850 o          1 534      -0.532000
     24 O2          -0.6230     2.5430    -3.4010 o          1 534      -0.532000
     25 C15         -1.8270     0.8500    -1.8080 ca         1 534      -0.297500
     26 C20         -2.7000     0.6560    -0.7480 ca         1 534      -0.018000
     27 C16         -1.4680    -0.1900    -2.6560 ca         1 534      -0.021000
     28 C17         -2.0070    -1.4460    -2.4240 ca         1 534      -0.127000
     29 C18         -2.8850    -1.6520    -1.3720 ca         1 534      -0.059000
     30 C19         -3.2420    -0.6080    -0.5150 cp         1 534      -0.019000
     31 C21         -4.1660    -0.8310     0.6020 cp         1 534      -0.230000
     32 C22         -4.1970    -2.0230     1.3230 ca         1 534       0.169900
     33 N5          -5.0150    -2.2450     2.3310 nb         1 534      -0.247500
     34 C23         -5.8510    -1.2500     2.6580 ca         1 534       0.389900
     35 N7          -6.6770    -1.4510     3.6930 nv         1 534      -1.067900
     36 N6          -5.9150    -0.0640     2.0380 nb         1 534      -0.247500
     37 C24         -5.0840     0.1260     1.0340 ca         1 534       0.169900
     38 H261         0.7220    -4.9450    -0.8220 hc         1 534       0.035033
     39 H262         1.4630    -6.1350    -1.8880 hc         1 534       0.035033
     40 H263         2.2710    -5.6700    -0.3920 hc         1 534       0.035033
     41 H25          3.3220    -4.6180    -2.3980 hc         1 534       0.051700
     42 H271         0.6290    -3.2260    -2.7900 hc         1 534       0.035033
     43 H272         2.0990    -2.8950    -3.7060 hc         1 534       0.035033
     44 H273         1.3160    -4.4700    -3.8320 hc         1 534       0.035033
     45 H13          4.9100    -3.2290    -1.5050 ha         1 534       0.113000
     46 H11          0.8290    -2.6170    -0.3700 ha         1 534       0.113000
     47 H14          5.5920    -1.3840    -0.0380 ha         1 534       0.124500
     48 H10          1.5010    -0.7740     1.0680 ha         1 534       0.124500
     49 H2           6.2760     0.6300     3.8100 h4         1 534       0.033100
     50 H1           4.8920     2.6950     4.1440 h4         1 534       0.029100
     51 H91C         2.9980     2.7050    -0.9880 h1         1 534       0.060700
     52 H92C         3.3150     0.9720    -0.9600 h1         1 534       0.060700
     53 H61C         1.1720     2.7080     2.1710 h1         1 534       0.060700
     54 H62C         1.7240     3.7460     0.8530 h1         1 534       0.060700
     55 H81C         1.5180     1.5650    -2.5310 h1         1 534       0.064450
     56 H82C         0.9860     0.4320    -1.2730 h1         1 534       0.064450
     57 H71C        -0.3560     1.5150     0.7410 h1         1 534       0.064450
     58 H72C        -0.6540     3.2580     0.6130 h1         1 534       0.064450
     59 H20         -2.9540     1.4790    -0.0920 ha         1 534       0.133000
     60 H16         -0.7910    -0.0310    -3.4850 ha         1 534       0.138000
     61 H17         -1.7560    -2.2680    -3.0810 ha         1 534       0.120000
     62 H18         -3.3110    -2.6370    -1.2290 ha         1 534       0.117000
     63 H22         -3.5110    -2.8290     1.0790 h4         1 534       0.024600
     64 H24         -5.1580     1.0850     0.5300 h4         1 534       0.024600
     65 H71N        -6.7280    -2.3520     4.1340 hn         1 534       0.506500
     66 H72N        -7.3710    -0.7630     3.9250 hn         1 534       0.506500
@<TRIPOS>BOND
     1     1     2 1   
     2     1    38 1   
     3     1    39 1   
     4     1    40 1   
     5     2     3 1   
     6     2     4 1   
     7     2    41 1   
     8     3    42 1   
     9     3    43 1   
    10     3    44 1   
    11     4     5 ar  
    12     4     7 ar  
    13     5     6 ar  
    14     5    45 1   
    15     6     9 ar  
    16     6    47 1   
    17     7     8 ar  
    18     7    46 1   
    19     8     9 ar  
    20     8    48 1   
    21     9    10 1   
    22    10    11 ar  
    23    10    15 ar  
    24    11    12 ar  
    25    12    13 ar  
    26    12    49 1   
    27    13    14 ar  
    28    13    50 1   
    29    14    15 ar  
    30    15    16 1   
    31    16    17 1   
    32    16    19 1   
    33    17    18 1   
    34    17    51 1   
    35    17    52 1   
    36    18    21 1   
    37    18    55 1   
    38    18    56 1   
    39    19    20 1   
    40    19    53 1   
    41    19    54 1   
    42    20    21 1   
    43    20    57 1   
    44    20    58 1   
    45    21    22 1   
    46    22    23 2   
    47    22    24 2   
    48    22    25 1   
    49    25    26 ar  
    50    25    27 ar  
    51    26    30 ar  
    52    26    59 1   
    53    27    28 ar  
    54    27    60 1   
    55    28    29 ar  
    56    28    61 1   
    57    29    30 ar  
    58    29    62 1   
    59    30    31 1   
    60    31    32 ar  
    61    31    37 ar  
    62    32    33 ar  
    63    32    63 1   
    64    33    34 ar  
    65    34    35 1   
    66    34    36 ar  
    67    35    65 1   
    68    35    66 1   
    69    36    37 ar  
    70    37    64 1   
@<TRIPOS>SUBSTRUCTURE
     1 534         1 TEMP              0 ****  ****    0 ROOT
