@<TRIPOS>MOLECULE
535
   24    25     1     0     0
SMALL
No Charge or Current Charge


@<TRIPOS>ATOM
      1 N1          -2.9500     1.5380     0.0710 nc         1 535      -0.642000
      2 C2          -1.7910     0.9030     0.0520 cd         1 535       0.432900
      3 N3          -1.9000    -0.4290     0.0340 na         1 535      -0.038500
      4 C4          -3.2430    -0.7430     0.0410 cd         1 535      -0.224000
      5 C5          -3.8590     0.4970     0.0650 cc         1 535       0.263900
      6 C6          -0.7640    -1.2160     0.0130 cc         1 535       0.005700
      7 C7           0.3150    -0.3170     0.0160 cd         1 535      -0.297600
      8 S8          -0.1370     1.4290     0.0450 ss         1 535       0.092600
      9 C9          -0.7720    -2.7250    -0.0090 c3         1 535      -0.050800
     10 C10          1.7380    -0.7350    -0.0030 c          1 535       0.648700
     11 O11          2.6110     0.3210     0.0050 os         1 535      -0.452100
     12 C12          4.0200     0.0390    -0.0120 c3         1 535       0.173600
     13 C13          4.7580     1.3870     0.0010 c3         1 535      -0.099100
     14 O14          2.1050    -1.9010    -0.0230 o          1 535      -0.485000
     15 H4          -3.6500    -1.7460     0.0310 h4         1 535       0.167000
     16 H5          -4.9200     0.7090     0.0770 h4         1 535       0.042100
     17 H9          -0.2680    -3.1030    -0.9060 hc         1 535       0.071033
     18 H9A         -0.2520    -3.1290     0.8670 hc         1 535       0.071033
     19 H9B         -1.7890    -3.1330    -0.0050 hc         1 535       0.071033
     20 H12          4.3140    -0.5480     0.8690 h1         1 535       0.050700
     21 H12A         4.2980    -0.5220    -0.9150 h1         1 535       0.050700
     22 H13          5.8430     1.2250    -0.0120 hc         1 535       0.049700
     23 H13A         4.4890     1.9830    -0.8790 hc         1 535       0.049700
     24 H13B         4.5050     1.9570     0.9020 hc         1 535       0.049700
@<TRIPOS>BOND
     1     1     2 2   
     2     1     5 1   
     3     2     3 1   
     4     2     8 1   
     5     3     4 1   
     6     3     6 1   
     7     4     5 2   
     8     4    15 1   
     9     5    16 1   
    10     6     7 2   
    11     6     9 1   
    12     7     8 1   
    13     7    10 1   
    14     9    17 1   
    15     9    18 1   
    16     9    19 1   
    17    10    11 1   
    18    10    14 2   
    19    11    12 1   
    20    12    13 1   
    21    12    20 1   
    22    12    21 1   
    23    13    22 1   
    24    13    23 1   
    25    13    24 1   
@<TRIPOS>SUBSTRUCTURE
     1 535         1 TEMP              0 ****  ****    0 ROOT
