@<TRIPOS>MOLECULE
535
   24    25     1     0     0
SMALL
abcg2


@<TRIPOS>ATOM
      1 N1          -2.8090     1.5220    -0.0380 nc         1 535      -0.642000
      2 C2          -1.6830     0.8730    -0.0260 cd         1 535       0.432900
      3 N3          -1.8520    -0.4820    -0.0060 na         1 535      -0.038500
      4 C4          -3.2090    -0.7140    -0.0060 cd         1 535      -0.224000
      5 C5          -3.7640     0.5330    -0.0260 cc         1 535       0.263900
      6 C6          -0.7030    -1.2370     0.0070 cc         1 535       0.005700
      7 C7           0.3890    -0.4300    -0.0040 cd         1 535      -0.297600
      8 S8          -0.0090     1.2830    -0.0280 ss         1 535       0.092600
      9 C9          -0.8220    -2.7140     0.0330 c3         1 535      -0.050800
     10 C10          1.7990    -0.8250    -0.0050 c          1 535       0.648700
     11 O11          2.5710     0.2490     0.0150 os         1 535      -0.452100
     12 C12          3.9990     0.0710    -0.0020 c3         1 535       0.173600
     13 C13          4.6320     1.4370     0.0890 c3         1 535      -0.099100
     14 O14          2.2060    -1.9610    -0.0240 o          1 535      -0.485000
     15 H4          -3.6360    -1.7010     0.0080 h4         1 535       0.167000
     16 H5          -4.8160     0.7740    -0.0320 h4         1 535       0.042100
     17 H9          -1.3470    -3.0620    -0.8580 hc         1 535       0.071033
     18 H9A          0.1480    -3.1940     0.0750 hc         1 535       0.071033
     19 H9B         -1.4050    -3.0260     0.9000 hc         1 535       0.071033
     20 H12          4.2980    -0.5570     0.8390 h1         1 535       0.050700
     21 H12A         4.2880    -0.4350    -0.9250 h1         1 535       0.050700
     22 H13          5.7160     1.3260     0.0710 hc         1 535       0.049700
     23 H13A         4.3460     2.0700    -0.7500 hc         1 535       0.049700
     24 H13B         4.3630     1.9410     1.0170 hc         1 535       0.049700
@<TRIPOS>BOND
     1     1     2 2   
     2     1     5 1   
     3     2     3 1   
     4     2     8 1   
     5     3     4 1   
     6     3     6 1   
     7     4     5 2   
     8     4    15 1   
     9     5    16 1   
    10     6     7 2   
    11     6     9 1   
    12     7     8 1   
    13     7    10 1   
    14     9    17 1   
    15     9    18 1   
    16     9    19 1   
    17    10    11 1   
    18    10    14 2   
    19    11    12 1   
    20    12    13 1   
    21    12    20 1   
    22    12    21 1   
    23    13    22 1   
    24    13    23 1   
    25    13    24 1   
@<TRIPOS>SUBSTRUCTURE
     1 535         1 TEMP              0 ****  ****    0 ROOT
