@<TRIPOS>MOLECULE
536
   32    33     1     0     0
SMALL
No Charge or Current Charge


@<TRIPOS>ATOM
      1 C1           1.1560    -0.9270    -1.4340 c3         1 536       0.273100
      2 N2          -0.1670    -1.0380    -0.7810 nh         1 536      -0.675400
      3 C3          -0.9380     0.0850    -0.4760 c2         1 536       0.122000
      4 C4          -2.1610     0.0100     0.1010 ce         1 536      -0.355400
      5 C5          -2.7550    -1.3530     0.5110 c6         1 536      -0.006200
      6 C6          -2.0980    -2.5070    -0.2790 c6         1 536      -0.089400
      7 C7          -0.5610    -2.3680    -0.2520 c6         1 536       0.216800
      8 C8          -2.9170     1.2570     0.4220 c          1 536       0.636300
      9 O9          -2.6430     2.3470    -0.0480 o          1 536      -0.648100
     10 N10         -3.8900     1.1510     1.3460 nt         1 536      -0.607000
     11 C11          2.1710    -0.1410    -0.6100 ca         1 536      -0.123300
     12 C12          2.7430    -0.7160     0.5430 ca         1 536      -0.096500
     13 C13          3.6780     0.0040     1.3070 ca         1 536      -0.110500
     14 C14          4.0480     1.3050     0.9230 ca         1 536      -0.103000
     15 C15          3.4810     1.8840    -0.2250 ca         1 536      -0.110500
     16 C16          2.5460     1.1640    -0.9890 ca         1 536      -0.096500
     17 H1           1.5700    -1.9250    -1.6320 h1         1 536       0.059200
     18 H11          1.0350    -0.4420    -2.4130 h1         1 536       0.059200
     19 H3          -0.4930     1.0480    -0.7480 h4         1 536       0.210000
     20 H5          -2.6010    -1.5100     1.5880 hc         1 536       0.037700
     21 H51         -3.8400    -1.3740     0.3370 hc         1 536       0.037700
     22 H6          -2.3980    -3.4760     0.1410 hc         1 536       0.050700
     23 H61         -2.4470    -2.4910    -1.3210 hc         1 536       0.050700
     24 H7          -0.1020    -3.1810    -0.8320 h1         1 536       0.043700
     25 H71         -0.2170    -2.4660     0.7880 h1         1 536       0.043700
     26 HN10        -4.0910     0.2550     1.7600 hn         1 536       0.304000
     27 HN11        -4.4070     1.9740     1.6150 hn         1 536       0.304000
     28 H12          2.4600    -1.7210     0.8480 ha         1 536       0.115000
     29 H13          4.1150    -0.4450     2.1960 ha         1 536       0.115000
     30 H14          4.7710     1.8620     1.5140 ha         1 536       0.114000
     31 H15          3.7660     2.8910    -0.5230 ha         1 536       0.115000
     32 H16          2.1120     1.6220    -1.8760 ha         1 536       0.115000
@<TRIPOS>BOND
     1     1     2 1   
     2     1    11 1   
     3     1    17 1   
     4     1    18 1   
     5     2     3 1   
     6     2     7 1   
     7     3     4 2   
     8     3    19 1   
     9     4     5 1   
    10     4     8 1   
    11     5     6 1   
    12     5    20 1   
    13     5    21 1   
    14     6     7 1   
    15     6    22 1   
    16     6    23 1   
    17     7    24 1   
    18     7    25 1   
    19     8     9 2   
    20     8    10 1   
    21    10    26 1   
    22    10    27 1   
    23    11    12 ar  
    24    11    16 ar  
    25    12    13 ar  
    26    12    28 1   
    27    13    14 ar  
    28    13    29 1   
    29    14    15 ar  
    30    14    30 1   
    31    15    16 ar  
    32    15    31 1   
    33    16    32 1   
@<TRIPOS>SUBSTRUCTURE
     1 536         1 TEMP              0 ****  ****    0 ROOT
