@<TRIPOS>MOLECULE
536
   32    33     1     0     0
SMALL
abcg2


@<TRIPOS>ATOM
      1 C1           1.0380    -0.6690    -1.4850 c3         1 536       0.273100
      2 N2          -0.2210    -0.8290    -0.7980 nh         1 536      -0.675400
      3 C3          -1.2170     0.0650    -0.9320 c2         1 536       0.122000
      4 C4          -2.3610     0.0740    -0.2010 ce         1 536      -0.355400
      5 C5          -2.5850    -0.9900     0.8420 c6         1 536      -0.006200
      6 C6          -1.7260    -2.2130     0.5330 c6         1 536      -0.089400
      7 C7          -0.2850    -1.8220     0.2570 c6         1 536       0.216800
      8 C8          -3.3260     1.1380    -0.4730 c          1 536       0.636300
      9 O9          -3.1920     1.9650    -1.3810 o          1 536      -0.648100
     10 N10         -4.4130     1.1750     0.3330 nt         1 536      -0.607000
     11 C11          2.1570    -0.2250    -0.5720 ca         1 536      -0.123300
     12 C12          3.3380    -0.9530    -0.4990 ca         1 536      -0.096500
     13 C13          4.3750    -0.5460     0.3320 ca         1 536      -0.110500
     14 C14          4.2340     0.5960     1.1070 ca         1 536      -0.103000
     15 C15          3.0530     1.3270     1.0460 ca         1 536      -0.110500
     16 C16          2.0220     0.9200     0.2120 ca         1 536      -0.096500
     17 H1           1.3140    -1.6160    -1.9600 h1         1 536       0.059200
     18 H11          0.9000     0.0580    -2.2880 h1         1 536       0.059200
     19 H3          -1.0670     0.8120    -1.7030 h4         1 536       0.210000
     20 H5          -2.3550    -0.6210     1.8480 hc         1 536       0.037700
     21 H51         -3.6330    -1.3040     0.8640 hc         1 536       0.037700
     22 H6          -1.7500    -2.9180     1.3650 hc         1 536       0.050700
     23 H61         -2.1320    -2.7320    -0.3390 hc         1 536       0.050700
     24 H7           0.2920    -2.6940    -0.0590 h1         1 536       0.043700
     25 H71          0.1870    -1.4390     1.1690 h1         1 536       0.043700
     26 HN10        -4.4820     0.6210     1.1690 hn         1 536       0.304000
     27 HN11        -5.0570     1.9440     0.2510 hn         1 536       0.304000
     28 H12          3.4490    -1.8510    -1.0970 ha         1 536       0.115000
     29 H13          5.2890    -1.1250     0.3760 ha         1 536       0.115000
     30 H14          5.0370     0.9140     1.7600 ha         1 536       0.114000
     31 H15          2.9370     2.2190     1.6490 ha         1 536       0.115000
     32 H16          1.1070     1.4990     0.1760 ha         1 536       0.115000
@<TRIPOS>BOND
     1     1     2 1   
     2     1    11 1   
     3     1    17 1   
     4     1    18 1   
     5     2     3 1   
     6     2     7 1   
     7     3     4 2   
     8     3    19 1   
     9     4     5 1   
    10     4     8 1   
    11     5     6 1   
    12     5    20 1   
    13     5    21 1   
    14     6     7 1   
    15     6    22 1   
    16     6    23 1   
    17     7    24 1   
    18     7    25 1   
    19     8     9 2   
    20     8    10 1   
    21    10    26 1   
    22    10    27 1   
    23    11    12 ar  
    24    11    16 ar  
    25    12    13 ar  
    26    12    28 1   
    27    13    14 ar  
    28    13    29 1   
    29    14    15 ar  
    30    14    30 1   
    31    15    16 ar  
    32    15    31 1   
    33    16    32 1   
@<TRIPOS>SUBSTRUCTURE
     1 536         1 TEMP              0 ****  ****    0 ROOT
