@<TRIPOS>MOLECULE
538
   70    74     1     0     0
SMALL
abcg2


@<TRIPOS>ATOM
      1 C1          -4.7120    -3.0990    -2.3660 c3         1 538      -0.091100
      2 C2          -5.6340    -2.7510    -1.2050 c3         1 538      -0.087400
      3 C3          -5.7280    -1.2490    -0.9330 c3         1 538       0.163000
      4 N4          -4.4270    -0.7390    -0.5510 ns         1 538      -0.509900
      5 C5          -4.1190     0.5710    -0.6150 c          1 538       0.622700
      6 O6          -4.8940     1.3980    -1.0800 o          1 538      -0.616100
      7 C7          -2.7760     0.9590    -0.1020 ca         1 538      -0.196600
      8 C8          -2.1380     0.2470     0.9320 ca         1 538      -0.083000
      9 C9          -0.9070     0.6330     1.4250 ca         1 538      -0.133000
     10 C10         -0.3020     1.7530     0.8580 ca         1 538      -0.019200
     11 N11          0.8870     2.3590     1.1330 na         1 538      -0.077700
     12 C12          1.8570     1.9150     2.1070 c3         1 538       0.131900
     13 C13          2.9960     1.1240     1.5110 ca         1 538      -0.146300
     14 C14          4.3070     1.4070     1.8700 ca         1 538      -0.103000
     15 C15          5.3620     0.6690     1.3500 ca         1 538      -0.089000
     16 C16          5.1350    -0.3640     0.4450 cp         1 538       0.040000
     17 C17          3.8150    -0.6440     0.0880 ca         1 538      -0.089000
     18 C18          2.7630     0.0850     0.6120 ca         1 538      -0.103000
     19 C19          6.2530    -1.1860    -0.0670 cp         1 538      -0.043000
     20 C20          7.1670    -1.7070     0.8520 ca         1 538      -0.121000
     21 C21          8.2100    -2.5260     0.4470 ca         1 538      -0.149000
     22 C22          8.3350    -2.8590    -0.8940 ca         1 538      -0.129000
     23 C23          7.4190    -2.3650    -1.8100 ca         1 538      -0.097000
     24 C24          6.3890    -1.5100    -1.4230 ca         1 538      -0.099600
     25 C25          5.5060    -0.9160    -2.5130 c          1 538       0.707600
     26 O26          5.3260     0.3130    -2.4670 o          1 538      -0.710000
     27 O27          5.0810    -1.7150    -3.3700 o          1 538      -0.710000
     28 C28          1.0540     3.4360     0.2800 cc         1 538      -0.026300
     29 C29          2.2670     4.2900     0.3610 c3         1 538      -0.042900
     30 C30         -0.0350     3.5450    -0.5420 cd         1 538      -0.134400
     31 C31         -0.2940     4.5540    -1.6080 c3         1 538      -0.011900
     32 C32         -0.9180     2.4770    -0.1860 ca         1 538      -0.105800
     33 C33         -2.1700     2.0820    -0.6490 ca         1 538       0.002000
     34 C34         -6.7790    -0.9500     0.1150 ca         1 538      -0.087300
     35 C35         -8.0470    -0.5320    -0.2710 ca         1 538      -0.093500
     36 C36         -9.0380    -0.2990     0.6740 ca         1 538      -0.114000
     37 C37         -8.7670    -0.4800     2.0230 ca         1 538      -0.113000
     38 C38         -7.5020    -0.8970     2.4180 ca         1 538      -0.114000
     39 C39         -6.5160    -1.1310     1.4700 ca         1 538      -0.093500
     40 H1          -3.6800    -2.8040    -2.1770 hc         1 538       0.038033
     41 H1A         -4.7170    -4.1730    -2.5510 hc         1 538       0.038033
     42 H1B         -5.0350    -2.6030    -3.2830 hc         1 538       0.038033
     43 H2          -6.6420    -3.1120    -1.4180 hc         1 538       0.044700
     44 H2A         -5.3120    -3.2660    -0.2940 hc         1 538       0.044700
     45 H3          -6.0270    -0.7560    -1.8630 h1         1 538       0.073700
     46 HN4         -3.7270    -1.3940    -0.2430 hn         1 538       0.318500
     47 H8          -2.6250    -0.6070     1.3870 ha         1 538       0.098000
     48 H9          -0.4450     0.0740     2.2290 ha         1 538       0.115000
     49 H12          2.2460     2.7820     2.6440 h1         1 538       0.050700
     50 H12A         1.3300     1.3150     2.8510 h1         1 538       0.050700
     51 H14          4.5120     2.2180     2.5600 ha         1 538       0.099500
     52 H15          6.3760     0.9180     1.6390 ha         1 538       0.123000
     53 H17          3.6070    -1.4580    -0.5950 ha         1 538       0.123000
     54 H18          1.7510    -0.1680     0.3180 ha         1 538       0.099500
     55 H20          7.0460    -1.4810     1.9050 ha         1 538       0.088000
     56 H21          8.9100    -2.9110     1.1770 ha         1 538       0.086000
     57 H22          9.1410    -3.5030    -1.2240 ha         1 538       0.087000
     58 H23          7.5160    -2.6320    -2.8550 ha         1 538       0.122000
     59 H29          3.1840     3.7100     0.2460 hc         1 538       0.052700
     60 H29A         2.2540     5.0460    -0.4210 hc         1 538       0.052700
     61 H29B         2.3310     4.8100     1.3200 hc         1 538       0.052700
     62 H31         -0.3620     4.0880    -2.5940 hc         1 538       0.034700
     63 H31A        -1.2360     5.0790    -1.4410 hc         1 538       0.034700
     64 H31B         0.4910     5.3080    -1.6590 hc         1 538       0.034700
     65 H33         -2.6650     2.6390    -1.4350 ha         1 538       0.130000
     66 H35         -8.2620    -0.3810    -1.3230 ha         1 538       0.112000
     67 H36        -10.0180     0.0330     0.3560 ha         1 538       0.107000
     68 H37         -9.5350    -0.2950     2.7640 ha         1 538       0.105000
     69 H38         -7.2800    -1.0390     3.4680 ha         1 538       0.107000
     70 H39         -5.5320    -1.4500     1.7940 ha         1 538       0.112000
@<TRIPOS>BOND
     1     1     2 1   
     2     1    40 1   
     3     1    41 1   
     4     1    42 1   
     5     2     3 1   
     6     2    43 1   
     7     2    44 1   
     8     3     4 1   
     9     3    34 1   
    10     3    45 1   
    11     4     5 1   
    12     4    46 1   
    13     5     6 2   
    14     5     7 1   
    15     7     8 ar  
    16     7    33 ar  
    17     8     9 ar  
    18     8    47 1   
    19     9    10 ar  
    20     9    48 1   
    21    10    11 1   
    22    10    32 ar  
    23    11    12 1   
    24    11    28 1   
    25    12    13 1   
    26    12    49 1   
    27    12    50 1   
    28    13    14 ar  
    29    13    18 ar  
    30    14    15 ar  
    31    14    51 1   
    32    15    16 ar  
    33    15    52 1   
    34    16    17 ar  
    35    16    19 1   
    36    17    18 ar  
    37    17    53 1   
    38    18    54 1   
    39    19    20 ar  
    40    19    24 ar  
    41    20    21 ar  
    42    20    55 1   
    43    21    22 ar  
    44    21    56 1   
    45    22    23 ar  
    46    22    57 1   
    47    23    24 ar  
    48    23    58 1   
    49    24    25 1   
    50    25    26 1   
    51    25    27 1   
    52    28    29 1   
    53    28    30 2   
    54    29    59 1   
    55    29    60 1   
    56    29    61 1   
    57    30    31 1   
    58    30    32 1   
    59    31    62 1   
    60    31    63 1   
    61    31    64 1   
    62    32    33 ar  
    63    33    65 1   
    64    34    35 ar  
    65    34    39 ar  
    66    35    36 ar  
    67    35    66 1   
    68    36    37 ar  
    69    36    67 1   
    70    37    38 ar  
    71    37    68 1   
    72    38    39 ar  
    73    38    69 1   
    74    39    70 1   
@<TRIPOS>SUBSTRUCTURE
     1 538         1 TEMP              0 ****  ****    0 ROOT
