@<TRIPOS>MOLECULE
538
   70    74     1     0     0
SMALL
No Charge or Current Charge


@<TRIPOS>ATOM
      1 C1          -5.2030    -2.0150    -2.9360 c3         1 538      -0.091100
      2 C2          -5.8430    -2.2650    -1.5530 c3         1 538      -0.087400
      3 C3          -6.0210    -0.9910    -0.6880 c3         1 538       0.163000
      4 N4          -4.7340    -0.3830    -0.3490 ns         1 538      -0.509900
      5 C5          -4.1520     0.6750    -1.0100 c          1 538       0.622700
      6 O6          -4.7010     1.2190    -1.9580 o          1 538      -0.616100
      7 C7          -2.8020     1.1260    -0.4970 ca         1 538      -0.196600
      8 C8          -2.1570     0.4920     0.6060 ca         1 538      -0.083000
      9 C9          -0.8960     0.9330     1.0610 ca         1 538      -0.133000
     10 C10         -0.2940     2.0160     0.4030 ca         1 538      -0.019200
     11 N11          0.9270     2.6400     0.6320 na         1 538      -0.077700
     12 C12          1.8230     2.2520     1.7400 c3         1 538       0.131900
     13 C13          2.9530     1.2980     1.3480 ca         1 538      -0.146300
     14 C14          4.1910     1.3830     2.0120 ca         1 538      -0.103000
     15 C15          5.2430     0.5160     1.6740 ca         1 538      -0.089000
     16 C16          5.0910    -0.4560     0.6570 cp         1 538       0.040000
     17 C17          3.8360    -0.5440     0.0070 ca         1 538      -0.089000
     18 C18          2.7810     0.3210     0.3450 ca         1 538      -0.103000
     19 C19          6.2070    -1.3980     0.3280 cp         1 538      -0.043000
     20 C20          6.8040    -2.1420     1.3770 ca         1 538      -0.121000
     21 C21          7.8160    -3.0830     1.1260 ca         1 538      -0.149000
     22 C22          8.2590    -3.3070    -0.1860 ca         1 538      -0.129000
     23 C23          7.6970    -2.5810    -1.2470 ca         1 538      -0.097000
     24 C24          6.6860    -1.6290    -0.9980 ca         1 538      -0.099600
     25 C25          6.1200    -0.7870    -2.1230 c          1 538       0.707600
     26 O26          6.1420     0.4310    -2.0150 o          1 538      -0.710000
     27 O27          5.7830    -1.3630    -3.1480 o          1 538      -0.710000
     28 C28          1.1350     3.6700    -0.3080 cc         1 538      -0.026300
     29 C29          2.3600     4.5460    -0.3730 c3         1 538      -0.042900
     30 C30         -0.0070     3.6690    -1.1030 cd         1 538      -0.134400
     31 C31         -0.2740     4.6010    -2.2590 c3         1 538      -0.011900
     32 C32         -0.9030     2.6230    -0.6580 ca         1 538      -0.105800
     33 C33         -2.1540     2.2110    -1.1390 ca         1 538       0.002000
     34 C34         -6.8140    -1.2680     0.5880 ca         1 538      -0.087300
     35 C35         -8.0030    -0.5550     0.8460 ca         1 538      -0.093500
     36 C36         -8.7380    -0.7970     2.0200 ca         1 538      -0.114000
     37 C37         -8.2900    -1.7520     2.9470 ca         1 538      -0.113000
     38 C38         -7.1040    -2.4630     2.7020 ca         1 538      -0.114000
     39 C39         -6.3680    -2.2220     1.5290 ca         1 538      -0.093500
     40 H1          -4.1750    -1.6490    -2.8340 hc         1 538       0.038033
     41 H1A         -5.1740    -2.9460    -3.5150 hc         1 538       0.038033
     42 H1B         -5.7810    -1.2770    -3.5040 hc         1 538       0.038033
     43 H2          -6.8280    -2.7220    -1.7060 hc         1 538       0.044700
     44 H2A         -5.2360    -3.0010    -1.0120 hc         1 538       0.044700
     45 H3          -6.5960    -0.2700    -1.2860 h1         1 538       0.073700
     46 HN4         -4.2220    -0.7620     0.4350 hn         1 538       0.318500
     47 H8          -2.6170    -0.3470     1.1220 ha         1 538       0.098000
     48 H9          -0.4120     0.4360     1.8970 ha         1 538       0.115000
     49 H12          2.2580     3.1700     2.1540 h1         1 538       0.050700
     50 H12A         1.2320     1.7970     2.5440 h1         1 538       0.050700
     51 H14          4.3400     2.1230     2.7960 ha         1 538       0.099500
     52 H15          6.1920     0.5980     2.1990 ha         1 538       0.123000
     53 H17          3.6790    -1.2990    -0.7580 ha         1 538       0.123000
     54 H18          1.8310     0.2210    -0.1750 ha         1 538       0.099500
     55 H20          6.4610    -1.9970     2.3990 ha         1 538       0.088000
     56 H21          8.2520    -3.6440     1.9490 ha         1 538       0.086000
     57 H22          9.0420    -4.0360    -0.3800 ha         1 538       0.087000
     58 H23          8.0550    -2.7420    -2.2620 ha         1 538       0.122000
     59 H29          3.2680     3.9730    -0.1520 hc         1 538       0.052700
     60 H29A         2.4820     4.9850    -1.3690 hc         1 538       0.052700
     61 H29B         2.2900     5.3650     0.3530 hc         1 538       0.052700
     62 H31          0.1590     4.2080    -3.1860 hc         1 538       0.034700
     63 H31A        -1.3480     4.7420    -2.4210 hc         1 538       0.034700
     64 H31B         0.1600     5.5920    -2.0790 hc         1 538       0.034700
     65 H33         -2.6070     2.7160    -1.9880 ha         1 538       0.130000
     66 H35         -8.3610     0.1880     0.1370 ha         1 538       0.112000
     67 H36         -9.6550    -0.2440     2.2100 ha         1 538       0.107000
     68 H37         -8.8590    -1.9380     3.8560 ha         1 538       0.105000
     69 H38         -6.7540    -3.2000     3.4210 ha         1 538       0.107000
     70 H39         -5.4490    -2.7770     1.3550 ha         1 538       0.112000
@<TRIPOS>BOND
     1     1     2 1   
     2     1    40 1   
     3     1    41 1   
     4     1    42 1   
     5     2     3 1   
     6     2    43 1   
     7     2    44 1   
     8     3     4 1   
     9     3    34 1   
    10     3    45 1   
    11     4     5 1   
    12     4    46 1   
    13     5     6 2   
    14     5     7 1   
    15     7     8 ar  
    16     7    33 ar  
    17     8     9 ar  
    18     8    47 1   
    19     9    10 ar  
    20     9    48 1   
    21    10    11 1   
    22    10    32 ar  
    23    11    12 1   
    24    11    28 1   
    25    12    13 1   
    26    12    49 1   
    27    12    50 1   
    28    13    14 ar  
    29    13    18 ar  
    30    14    15 ar  
    31    14    51 1   
    32    15    16 ar  
    33    15    52 1   
    34    16    17 ar  
    35    16    19 1   
    36    17    18 ar  
    37    17    53 1   
    38    18    54 1   
    39    19    20 ar  
    40    19    24 ar  
    41    20    21 ar  
    42    20    55 1   
    43    21    22 ar  
    44    21    56 1   
    45    22    23 ar  
    46    22    57 1   
    47    23    24 ar  
    48    23    58 1   
    49    24    25 1   
    50    25    26 1   
    51    25    27 1   
    52    28    29 1   
    53    28    30 2   
    54    29    59 1   
    55    29    60 1   
    56    29    61 1   
    57    30    31 1   
    58    30    32 1   
    59    31    62 1   
    60    31    63 1   
    61    31    64 1   
    62    32    33 ar  
    63    33    65 1   
    64    34    35 ar  
    65    34    39 ar  
    66    35    36 ar  
    67    35    66 1   
    68    36    37 ar  
    69    36    67 1   
    70    37    38 ar  
    71    37    68 1   
    72    38    39 ar  
    73    38    69 1   
    74    39    70 1   
@<TRIPOS>SUBSTRUCTURE
     1 538         1 TEMP              0 ****  ****    0 ROOT
