@<TRIPOS>MOLECULE
539
   40    43     1     0     0
SMALL
No Charge or Current Charge


@<TRIPOS>ATOM
      1 C5           0.9540     1.6740    -0.0510 ca         1 539      -0.073000
      2 C6           0.6830     0.3210    -0.3670 ca         1 539      -0.097000
      3 C7          -0.5950    -0.2270    -0.0800 ca         1 539      -0.011000
      4 C8          -0.8340    -1.5960    -0.4120 cp         1 539       0.301500
      5 C10         -3.3680    -1.7820    -0.6990 ca         1 539      -0.144000
      6 N12         -4.6180    -3.6840     0.1370 nb         1 539      -0.659000
      7 C13         -3.4560    -4.2020     0.5980 ca         1 539       0.331400
      8 C17          1.6520    -0.5360    -0.9480 ca         1 539       0.593900
      9 C20          5.3230    -0.3210    -1.1180 c5         1 539      -0.095900
     10 C21          6.3100    -0.7690    -0.0010 c5         1 539      -0.077900
     11 C22          5.4670    -0.7210     1.3190 c5         1 539      -0.077900
     12 C24         -1.5690     0.5840     0.5450 ca         1 539      -0.083000
     13 C14         -2.2170    -3.5560     0.4440 ca         1 539      -0.144000
     14 C11         -4.5650    -2.4940    -0.5030 ca         1 539       0.331400
     15 C9          -2.1430    -2.3010    -0.2090 cp         1 539      -0.095500
     16 C2          -1.2910     1.9250     0.8550 ca         1 539       0.131000
     17 C3          -0.0300     2.4730     0.5520 ca         1 539       0.114000
     18 C23          4.0400    -0.2900     0.8680 c5         1 539      -0.095900
     19 C19          3.9910    -0.8760    -0.5660 c5         1 539       0.226500
     20 N15          0.1560    -2.3470    -0.9530 nb         1 539      -0.266000
     21 N16          1.3730    -1.8320    -1.2190 nb         1 539      -0.429000
     22 N18          2.9390    -0.1130    -1.2880 nu         1 539      -0.912100
     23 Cl1         -2.5410     2.8980     1.6330 cl         1 539      -0.156000
     24 Cl4          0.3490     4.1520     0.9360 cl         1 539      -0.158000
     25 H1           1.9240     2.1190    -0.2550 ha         1 539       0.130000
     26 H2          -3.3950    -0.8410    -1.2400 ha         1 539       0.131000
     27 H3          -3.5210    -5.1640     1.1050 h4         1 539       0.020600
     28 H4           5.3220     0.7710    -1.2190 hc         1 539       0.049700
     29 H5           5.5800    -0.7420    -2.0970 hc         1 539       0.049700
     30 H6           6.6780    -1.7850    -0.1870 hc         1 539       0.046450
     31 H7           7.1900    -0.1180     0.0460 hc         1 539       0.046450
     32 H8           5.4470    -1.7060     1.8000 hc         1 539       0.046450
     33 H9           5.8860    -0.0210     2.0510 hc         1 539       0.046450
     34 H10         -2.5420     0.1850     0.8150 ha         1 539       0.148000
     35 H11         -1.3200    -4.0290     0.8350 ha         1 539       0.131000
     36 H12         -5.5100    -2.1000    -0.8770 h4         1 539       0.020600
     37 H13          3.2570    -0.6960     1.5180 hc         1 539       0.049700
     38 H14          3.9440     0.8030     0.8820 hc         1 539       0.049700
     39 H15          3.9250    -1.9750    -0.6100 h1         1 539       0.091700
     40 H16          3.0280     0.8960    -1.3530 hn         1 539       0.487000
@<TRIPOS>BOND
     1     1     2 ar  
     2     1    17 ar  
     3     1    25 1   
     4     2     3 ar  
     5     2     8 ar  
     6     3     4 ar  
     7     3    12 ar  
     8     4    15 1   
     9     4    20 ar  
    10     5    14 ar  
    11     5    15 ar  
    12     5    26 1   
    13     6     7 ar  
    14     6    14 ar  
    15     7    13 ar  
    16     7    27 1   
    17     8    21 ar  
    18     8    22 1   
    19     9    10 1   
    20     9    19 1   
    21     9    28 1   
    22     9    29 1   
    23    10    11 1   
    24    10    30 1   
    25    10    31 1   
    26    11    18 1   
    27    11    32 1   
    28    11    33 1   
    29    12    16 ar  
    30    12    34 1   
    31    13    15 ar  
    32    13    35 1   
    33    14    36 1   
    34    16    17 ar  
    35    16    23 1   
    36    17    24 1   
    37    18    19 1   
    38    18    37 1   
    39    18    38 1   
    40    19    22 1   
    41    19    39 1   
    42    20    21 ar  
    43    22    40 1   
@<TRIPOS>SUBSTRUCTURE
     1 539         1 TEMP              0 ****  ****    0 ROOT
