@<TRIPOS>MOLECULE
539
   40    43     1     0     0
SMALL
abcg2


@<TRIPOS>ATOM
      1 C5           0.5920     1.9600    -0.0790 ca         1 539      -0.073000
      2 C6           0.4750     0.5630    -0.0790 ca         1 539      -0.097000
      3 C7          -0.7930    -0.0290     0.0250 ca         1 539      -0.011000
      4 C8          -0.8490    -1.4600    -0.0120 cp         1 539       0.301500
      5 C10         -3.1670    -1.8890    -0.8740 ca         1 539      -0.144000
      6 N12         -4.4790    -3.7170    -0.0630 nb         1 539      -0.659000
      7 C13         -3.4740    -4.0320     0.7480 ca         1 539       0.331400
      8 C17          1.6040    -0.3340    -0.1510 ca         1 539       0.593900
      9 C20          5.2290     0.0070    -0.9230 c5         1 539      -0.095900
     10 C21          6.4240    -0.8470    -0.4860 c5         1 539      -0.077900
     11 C22          5.9940    -1.5430     0.8320 c5         1 539      -0.077900
     12 C24         -1.9190     0.7920     0.1940 ca         1 539      -0.083000
     13 C14         -2.2850    -3.3240     0.8070 ca         1 539      -0.144000
     14 C11         -4.3150    -2.6660    -0.8560 ca         1 539       0.331400
     15 C9          -2.1190    -2.2130    -0.0160 cp         1 539      -0.095500
     16 C2          -1.7880     2.1560     0.2080 ca         1 539       0.131000
     17 C3          -0.5220     2.7480     0.0530 ca         1 539       0.114000
     18 C23          4.5590    -1.0770     1.1020 c5         1 539      -0.095900
     19 C19          4.0330    -0.6920    -0.2830 c5         1 539       0.226500
     20 N15          0.2330    -2.1800    -0.0500 nb         1 539      -0.266000
     21 N16          1.4460    -1.6430    -0.0920 nb         1 539      -0.429000
     22 N18          2.8520     0.1400    -0.2810 nu         1 539      -0.912100
     23 CL1         -3.1790     3.1400     0.4260 cl         1 539      -0.156000
     24 CL4         -0.3630     4.4570     0.0420 cl         1 539      -0.158000
     25 H1           1.5510     2.4490    -0.1820 ha         1 539       0.130000
     26 H2          -3.0950    -1.0600    -1.5650 ha         1 539       0.131000
     27 H3          -3.6190    -4.8940     1.3890 h4         1 539       0.020600
     28 H4           5.3160     1.0210    -0.5210 hc         1 539       0.049700
     29 H5           5.1370     0.0920    -2.0060 hc         1 539       0.049700
     30 H6           6.6530    -1.5920    -1.2490 hc         1 539       0.046450
     31 H7           7.3220    -0.2420    -0.3590 hc         1 539       0.046450
     32 H8           6.0310    -2.6270     0.7160 hc         1 539       0.046450
     33 H9           6.6580    -1.2960     1.6600 hc         1 539       0.046450
     34 H10         -2.8990     0.3570     0.3310 ha         1 539       0.148000
     35 H11         -1.5060    -3.6290     1.4920 ha         1 539       0.131000
     36 H12         -5.1360    -2.4250    -1.5220 h4         1 539       0.020600
     37 H13          3.9410    -1.8340     1.5870 hc         1 539       0.049700
     38 H14          4.5530    -0.1880     1.7390 hc         1 539       0.049700
     39 H15          3.8010    -1.6000    -0.8440 h1         1 539       0.091700
     40 H16          3.0060     1.1290    -0.1720 hn         1 539       0.487000
@<TRIPOS>BOND
     1     1     2 ar  
     2     1    17 ar  
     3     1    25 1   
     4     2     3 ar  
     5     2     8 ar  
     6     3     4 ar  
     7     3    12 ar  
     8     4    15 1   
     9     4    20 ar  
    10     5    14 ar  
    11     5    15 ar  
    12     5    26 1   
    13     6     7 ar  
    14     6    14 ar  
    15     7    13 ar  
    16     7    27 1   
    17     8    21 ar  
    18     8    22 1   
    19     9    10 1   
    20     9    19 1   
    21     9    28 1   
    22     9    29 1   
    23    10    11 1   
    24    10    30 1   
    25    10    31 1   
    26    11    18 1   
    27    11    32 1   
    28    11    33 1   
    29    12    16 ar  
    30    12    34 1   
    31    13    15 ar  
    32    13    35 1   
    33    14    36 1   
    34    16    17 ar  
    35    16    23 1   
    36    17    24 1   
    37    18    19 1   
    38    18    37 1   
    39    18    38 1   
    40    19    22 1   
    41    19    39 1   
    42    20    21 ar  
    43    22    40 1   
@<TRIPOS>SUBSTRUCTURE
     1 539         1 TEMP              0 ****  ****    0 ROOT
