@<TRIPOS>MOLECULE
53A
   48    50     1     0     0
SMALL
bcc


@<TRIPOS>ATOM
      1 N1          -2.7290     0.6730    -0.0010 na         1 53A      -0.272200
      2 N3          -3.9450     0.0380     0.2770 na         1 53A      -0.052700
      3 C4          -0.1880     1.4460    -0.1050 cc         1 53A       0.587600
      4 C5          -1.2240     2.4580    -0.2230 ca         1 53A      -0.238300
      5 C6          -2.5580     2.0090    -0.1330 ca         1 53A       0.131700
      6 O2           4.2380     1.9200    -0.1280 o          1 53A      -0.531000
      7 N4          -3.6680    -1.2800    -0.2220 na         1 53A      -0.142600
      8 C10          2.1770    -0.3840     1.2380 c          1 53A       0.599100
      9 C13          1.9240     0.3650     2.5100 c3         1 53A      -0.194100
     10 C7           2.3480     0.4380    -0.0540 c3         1 53A      -0.191600
     11 C9           3.8180     0.7950    -0.2170 c          1 53A       0.660100
     12 O5           4.5400    -0.2750    -0.4430 os         1 53A      -0.397900
     13 C15          5.9670    -0.1130    -0.5980 c3         1 53A       0.144400
     14 C19          6.5520    -1.4730    -0.8810 c3         1 53A      -0.098100
     15 S1           1.4640     2.0150    -0.1030 ss         1 53A      -0.192400
     16 N2          -0.4090     0.1800     0.0200 nd         1 53A      -0.690000
     17 C11         -0.9830     3.8240    -0.3850 ca         1 53A      -0.050000
     18 C16         -2.0290     4.7210    -0.4400 ca         1 53A      -0.169000
     19 C17         -3.3420     4.2580    -0.3280 ca         1 53A      -0.062000
     20 C12         -3.6200     2.9150    -0.1720 ca         1 53A      -0.173000
     21 C3          -2.2590    -1.4770     0.0150 cc         1 53A      -0.296300
     22 C1          -1.6940    -0.2400     0.0350 cd         1 53A       0.509500
     23 C8          -1.5990    -2.7550    -0.0070 c          1 53A       0.690300
     24 O1          -0.4050    -2.9310     0.1130 o          1 53A      -0.515000
     25 O4          -2.4830    -3.7440    -0.1690 os         1 53A      -0.434900
     26 C14         -1.9860    -5.0870    -0.2070 c3         1 53A       0.147400
     27 C18         -3.1630    -6.0090    -0.4170 c3         1 53A      -0.097100
     28 HN3         -3.9960    -0.0090     1.3020 hn         1 53A       0.144700
     29 HN4         -4.2630    -1.9250     0.2850 hn         1 53A       0.225700
     30 H13          2.5870     1.2260     2.5990 hc         1 53A       0.066700
     31 H13A         0.9030     0.7470     2.5340 hc         1 53A       0.066700
     32 H13B         2.0650    -0.2930     3.3650 hc         1 53A       0.066700
     33 H7           2.0290    -0.1870    -0.8910 h1         1 53A       0.141700
     34 H15          6.1620     0.5800    -1.4180 h1         1 53A       0.050200
     35 H15A         6.3810     0.3140     0.3160 h1         1 53A       0.050200
     36 H19          7.6290    -1.3730    -1.0140 hc         1 53A       0.051367
     37 H19A         6.3800    -2.1650    -0.0580 hc         1 53A       0.051367
     38 H19B         6.1420    -1.9040    -1.7940 hc         1 53A       0.051367
     39 H11          0.0320     4.1940    -0.4690 ha         1 53A       0.148000
     40 H16         -1.8330     5.7760    -0.5640 ha         1 53A       0.143000
     41 H17         -4.1620     4.9630    -0.3670 ha         1 53A       0.138000
     42 H12         -4.6380     2.5630    -0.0870 ha         1 53A       0.160000
     43 H14         -1.2610    -5.1930    -1.0170 h1         1 53A       0.048200
     44 H14A        -1.4770    -5.3210     0.7300 h1         1 53A       0.048200
     45 H18         -3.8840    -5.9290     0.3960 hc         1 53A       0.045033
     46 H18A        -3.6730    -5.8010    -1.3580 hc         1 53A       0.045033
     47 H18B        -2.8080    -7.0390    -0.4500 hc         1 53A       0.045033
     48 O3           2.3260    -1.5750     1.1840 o          1 53A      -0.457100
@<TRIPOS>BOND
     1     1     2 1   
     2     1     5 1   
     3     1    22 1   
     4     2     7 1   
     5     2    28 1   
     6     3     4 1   
     7     3    15 1   
     8     3    16 2   
     9     4     5 ar  
    10     4    17 ar  
    11     5    20 ar  
    12     6    11 2   
    13     7    21 1   
    14     7    29 1   
    15     8     9 1   
    16     8    10 1   
    17     8    48 2   
    18     9    30 1   
    19     9    31 1   
    20     9    32 1   
    21    10    11 1   
    22    10    15 1   
    23    10    33 1   
    24    11    12 1   
    25    12    13 1   
    26    13    14 1   
    27    13    34 1   
    28    13    35 1   
    29    14    36 1   
    30    14    37 1   
    31    14    38 1   
    32    16    22 1   
    33    17    18 ar  
    34    17    39 1   
    35    18    19 ar  
    36    18    40 1   
    37    19    20 ar  
    38    19    41 1   
    39    20    42 1   
    40    21    22 2   
    41    21    23 1   
    42    23    24 2   
    43    23    25 1   
    44    25    26 1   
    45    26    27 1   
    46    26    43 1   
    47    26    44 1   
    48    27    45 1   
    49    27    46 1   
    50    27    47 1   
@<TRIPOS>SUBSTRUCTURE
     1 53A         1 TEMP              0 ****  ****    0 ROOT
