@<TRIPOS>MOLECULE
53A
   48    50     1     0     0
SMALL
No Charge or Current Charge


@<TRIPOS>ATOM
      1 N1          -2.9190     0.4840     0.1180 na         1 53A      -0.221500
      2 N3          -3.7520    -0.0320     1.1450 na         1 53A      -0.103000
      3 C4          -0.2610     1.2000    -0.4020 cc         1 53A       0.522300
      4 C5          -1.2640     2.2420    -0.1420 ca         1 53A      -0.173000
      5 C6          -2.5880     1.8420     0.1210 ca         1 53A       0.081000
      6 O2           4.0910     0.5330    -2.2090 o          1 53A      -0.482000
      7 N4          -3.6970    -0.9970     0.0960 na         1 53A      -0.192900
      8 C10          2.3220    -0.4970     0.8610 c          1 53A       0.599100
      9 C13          2.4470     0.5230     1.9980 c3         1 53A      -0.194100
     10 C7           2.3740     0.0260    -0.5790 c3         1 53A      -0.143700
     11 C9           3.8110     0.1770    -1.0720 c          1 53A       0.611100
     12 O5           4.7450    -0.1270    -0.1150 os         1 53A      -0.421100
     13 C15          6.1350    -0.0160    -0.4620 c3         1 53A       0.167600
     14 C19          6.9480    -0.4020     0.7830 c3         1 53A      -0.098100
     15 S1           1.4070     1.6200    -0.8180 ss         1 53A      -0.240300
     16 N2          -0.4980    -0.1030    -0.3710 nd         1 53A      -0.690000
     17 C11         -0.9400     3.6180    -0.1410 ca         1 53A      -0.032000
     18 C16         -1.9340     4.5780     0.1110 ca         1 53A      -0.151000
     19 C17         -3.2550     4.1780     0.3600 ca         1 53A      -0.044000
     20 C12         -3.5810     2.8130     0.3620 ca         1 53A      -0.155000
     21 C3          -2.4130    -1.5010    -0.0820 cc         1 53A      -0.296300
     22 C1          -1.8140    -0.3240    -0.0250 cd         1 53A       0.509500
     23 C8          -1.8720    -2.8190    -0.4470 c          1 53A       0.641300
     24 O1          -0.6890    -3.0590    -0.6460 o          1 53A      -0.466000
     25 O4          -2.8530    -3.7730    -0.5260 os         1 53A      -0.458100
     26 C14         -2.4700    -5.1150    -0.8670 c3         1 53A       0.170600
     27 C18         -3.7480    -5.9690    -0.8870 c3         1 53A      -0.097100
     28 HN3         -3.2880    -0.2870     2.0080 hn         1 53A       0.195000
     29 HN4         -4.5700    -1.4850    -0.0770 hn         1 53A       0.276000
     30 H13          3.1720     1.3000     1.7320 hc         1 53A       0.066700
     31 H13A         1.5040     1.0740     2.0750 hc         1 53A       0.066700
     32 H13B         2.6770     0.0460     2.9570 hc         1 53A       0.066700
     33 H7           1.9270    -0.7530    -1.2040 h1         1 53A       0.141700
     34 H15          6.3880    -0.6910    -1.2910 h1         1 53A       0.050200
     35 H15A         6.3840     1.0120    -0.7590 h1         1 53A       0.050200
     36 H19          8.0210    -0.3330     0.5720 hc         1 53A       0.051367
     37 H19A         6.7170     0.2700     1.6180 hc         1 53A       0.051367
     38 H19B         6.7220    -1.4310     1.0870 hc         1 53A       0.051367
     39 H11          0.0750     3.9590    -0.3330 ha         1 53A       0.130000
     40 H16         -1.6800     5.6360     0.1090 ha         1 53A       0.125000
     41 H17         -4.0260     4.9230     0.5490 ha         1 53A       0.120000
     42 H12         -4.6080     2.5100     0.5500 ha         1 53A       0.142000
     43 H14         -1.9930    -5.1480    -1.8560 h1         1 53A       0.048200
     44 H14A        -1.7680    -5.5230    -0.1270 h1         1 53A       0.048200
     45 H18         -4.2320    -5.9610     0.0970 hc         1 53A       0.045033
     46 H18A        -4.4560    -5.5860    -1.6310 hc         1 53A       0.045033
     47 H18B        -3.5060    -7.0070    -1.1430 hc         1 53A       0.045033
     48 O3           2.1940    -1.6900     1.1020 o          1 53A      -0.457100
@<TRIPOS>BOND
     1     1     2 1   
     2     1     5 1   
     3     1    22 1   
     4     2     7 1   
     5     2    28 1   
     6     3     4 1   
     7     3    15 1   
     8     3    16 2   
     9     4     5 ar  
    10     4    17 ar  
    11     5    20 ar  
    12     6    11 2   
    13     7    21 1   
    14     7    29 1   
    15     8     9 1   
    16     8    10 1   
    17     8    48 2   
    18     9    30 1   
    19     9    31 1   
    20     9    32 1   
    21    10    11 1   
    22    10    15 1   
    23    10    33 1   
    24    11    12 1   
    25    12    13 1   
    26    13    14 1   
    27    13    34 1   
    28    13    35 1   
    29    14    36 1   
    30    14    37 1   
    31    14    38 1   
    32    16    22 1   
    33    17    18 ar  
    34    17    39 1   
    35    18    19 ar  
    36    18    40 1   
    37    19    20 ar  
    38    19    41 1   
    39    20    42 1   
    40    21    22 2   
    41    21    23 1   
    42    23    24 2   
    43    23    25 1   
    44    25    26 1   
    45    26    27 1   
    46    26    43 1   
    47    26    44 1   
    48    27    45 1   
    49    27    46 1   
    50    27    47 1   
@<TRIPOS>SUBSTRUCTURE
     1 53A         1 TEMP              0 ****  ****    0 ROOT
