@<TRIPOS>MOLECULE
53B
   14    14     1     0     0
SMALL
abcg2


@<TRIPOS>ATOM
      1 C01         -1.2270     1.8900     0.0800 ca         1 53B      -0.078000
      2 C02          0.1130     1.5220     0.0230 ca         1 53B      -0.183000
      3 C03          0.4250     0.1700     0.0360 ca         1 53B       0.344500
      4 C04          1.8780    -0.2890     0.0240 c          1 53B       0.613500
      5 O05          2.6710     0.4360    -0.6060 o          1 53B      -0.703000
      6 O06          2.1390    -1.3000     0.6970 o          1 53B      -0.703000
      7 N07         -0.5150    -0.7730     0.0680 nb         1 53B      -0.733000
      8 C08         -1.7820    -0.4130     0.0970 ca         1 53B       0.549300
      9 C09         -2.2080     0.9170     0.1140 ca         1 53B      -0.229000
     10 O10         -2.7070    -1.3800     0.1180 oh         1 53B      -0.680300
     11 H011        -1.5080     2.9350     0.0920 ha         1 53B       0.089000
     12 H021         0.8910     2.2700    -0.0240 ha         1 53B       0.133000
     13 H091        -3.2600     1.1660     0.1410 ha         1 53B       0.106000
     14 H101        -2.2540    -2.2340     0.0790 ho         1 53B       0.475000
@<TRIPOS>BOND
     1     1     2 ar  
     2     1     9 ar  
     3     1    11 1   
     4     2     3 ar  
     5     2    12 1   
     6     3     4 1   
     7     3     7 ar  
     8     4     5 1   
     9     4     6 1   
    10     7     8 ar  
    11     8     9 ar  
    12     8    10 1   
    13     9    13 1   
    14    10    14 1   
@<TRIPOS>SUBSTRUCTURE
     1 53B         1 TEMP              0 ****  ****    0 ROOT
