@<TRIPOS>MOLECULE
53B
   14    14     1     0     0
SMALL
No Charge or Current Charge


@<TRIPOS>ATOM
      1 C01         -1.2560     1.9260     0.0040 ca         1 53B      -0.078000
      2 C02          0.0860     1.5160    -0.0100 ca         1 53B      -0.183000
      3 C03          0.4160     0.1360     0.0530 ca         1 53B       0.344500
      4 C04          1.9150    -0.2980     0.0350 c          1 53B       0.613500
      5 O05          2.7860     0.5660    -0.0340 o          1 53B      -0.703000
      6 O06          2.2020    -1.4920     0.0900 o          1 53B      -0.703000
      7 N07         -0.5750    -0.8130     0.1290 nb         1 53B      -0.733000
      8 C08         -1.8410    -0.4030     0.1420 ca         1 53B       0.549300
      9 C09         -2.2420     0.9350     0.0830 ca         1 53B      -0.229000
     10 O10         -2.7300    -1.4000     0.2180 oh         1 53B      -0.680300
     11 H011        -1.5220     2.9800    -0.0440 ha         1 53B       0.089000
     12 H021         0.8730     2.2620    -0.0710 ha         1 53B       0.133000
     13 H091        -3.2970     1.1950     0.0980 ha         1 53B       0.106000
     14 H101        -2.1590    -2.1940     0.2440 ho         1 53B       0.475000
@<TRIPOS>BOND
     1     1     2 ar  
     2     1     9 ar  
     3     1    11 1   
     4     2     3 ar  
     5     2    12 1   
     6     3     4 1   
     7     3     7 ar  
     8     4     5 1   
     9     4     6 1   
    10     7     8 ar  
    11     8     9 ar  
    12     8    10 1   
    13     9    13 1   
    14    10    14 1   
@<TRIPOS>SUBSTRUCTURE
     1 53B         1 TEMP              0 ****  ****    0 ROOT
