@<TRIPOS>MOLECULE
53C
   18    18     1     0     0
SMALL
No Charge or Current Charge


@<TRIPOS>ATOM
      1 C01          3.1260    -0.5770    -0.0250 c3         1 53C      -0.194100
      2 C02          1.9550     0.4060     0.0480 c          1 53C       0.581700
      3 C03          0.5280    -0.1200     0.0580 ca         1 53C      -0.135600
      4 C04          0.2430    -1.5070     0.0020 ca         1 53C      -0.112000
      5 C05         -1.0850    -1.9680     0.0130 ca         1 53C      -0.089000
      6 C06         -2.1480    -1.0540     0.0800 ca         1 53C      -0.120000
      7 C07         -1.8850     0.3210     0.1370 ca         1 53C       0.128100
      8 C08         -0.5590     0.7870     0.1260 ca         1 53C      -0.155000
      9 O09         -2.9240     1.2030     0.2020 oh         1 53C      -0.533100
     10 O10          2.1840     1.6100     0.0970 o          1 53C      -0.525100
     11 H1           4.0990    -0.0740    -0.0260 hc         1 53C       0.062367
     12 H2           3.0450    -1.2920     0.8010 hc         1 53C       0.062367
     13 H3           3.0040    -1.2130    -0.9080 hc         1 53C       0.062367
     14 H4           1.0410    -2.2430    -0.0510 ha         1 53C       0.116000
     15 H5          -1.2890    -3.0360    -0.0310 ha         1 53C       0.118000
     16 H6          -3.1740    -1.4130     0.0890 ha         1 53C       0.131000
     17 H7          -0.3690     1.8570     0.1700 ha         1 53C       0.134000
     18 H8          -2.5610     2.1140     0.2350 ho         1 53C       0.469000
@<TRIPOS>BOND
     1     1     2 1   
     2     1    11 1   
     3     1    12 1   
     4     1    13 1   
     5     2     3 1   
     6     2    10 2   
     7     3     4 ar  
     8     3     8 ar  
     9     4     5 ar  
    10     4    14 1   
    11     5     6 ar  
    12     5    15 1   
    13     6     7 ar  
    14     6    16 1   
    15     7     8 ar  
    16     7     9 1   
    17     8    17 1   
    18     9    18 1   
@<TRIPOS>SUBSTRUCTURE
     1 53C         1 TEMP              0 ****  ****    0 ROOT
