@<TRIPOS>MOLECULE
53C
   18    18     1     0     0
SMALL
abcg2


@<TRIPOS>ATOM
      1 C01          3.0570    -0.5960    -0.0260 c3         1 53C      -0.194100
      2 C02          1.9230     0.3890     0.0490 c          1 53C       0.581700
      3 C03          0.5270    -0.1360     0.0580 ca         1 53C      -0.135600
      4 C04          0.2550    -1.5010     0.0030 ca         1 53C      -0.112000
      5 C05         -1.0620    -1.9390     0.0150 ca         1 53C      -0.089000
      6 C06         -2.1090    -1.0370     0.0800 ca         1 53C      -0.120000
      7 C07         -1.8410     0.3320     0.1360 ca         1 53C       0.128100
      8 C08         -0.5270     0.7760     0.1250 ca         1 53C      -0.155000
      9 O09         -2.8920     1.1720     0.1990 oh         1 53C      -0.533100
     10 O10          2.1310     1.5840     0.1030 o          1 53C      -0.525100
     11 H1           4.0100    -0.0730    -0.0220 hc         1 53C       0.062367
     12 H2           3.0320    -1.2850     0.8190 hc         1 53C       0.062367
     13 H3           2.9920    -1.1980    -0.9340 hc         1 53C       0.062367
     14 H4           1.0520    -2.2290    -0.0480 ha         1 53C       0.116000
     15 H5          -1.2750    -2.9990    -0.0270 ha         1 53C       0.118000
     16 H6          -3.1350    -1.3840     0.0890 ha         1 53C       0.131000
     17 H7          -0.3170     1.8390     0.1680 ha         1 53C       0.134000
     18 H8          -2.5910     2.0870     0.2300 ho         1 53C       0.469000
@<TRIPOS>BOND
     1     1     2 1   
     2     1    11 1   
     3     1    12 1   
     4     1    13 1   
     5     2     3 1   
     6     2    10 2   
     7     3     4 ar  
     8     3     8 ar  
     9     4     5 ar  
    10     4    14 1   
    11     5     6 ar  
    12     5    15 1   
    13     6     7 ar  
    14     6    16 1   
    15     7     8 ar  
    16     7     9 1   
    17     8    17 1   
    18     9    18 1   
@<TRIPOS>SUBSTRUCTURE
     1 53C         1 TEMP              0 ****  ****    0 ROOT
