@<TRIPOS>MOLECULE
53D
   66    69     1     0     0
SMALL
bcc


@<TRIPOS>ATOM
      1 C5          -2.4570    -5.6610    -0.9060 cc         1 53D      -0.368400
      2 C2          -1.3590    -3.0750    -0.7360 ca         1 53D       0.191600
      3 C7          -0.8350    -1.7780    -0.7210 ca         1 53D      -0.233000
      4 N14         -0.9410     0.5290     0.0520 nh         1 53D      -0.642000
      5 C13          1.7560    -3.5710    -1.3480 cx         1 53D      -0.125400
      6 C8          -1.4600    -0.7490    -0.0280 ca         1 53D       0.173600
      7 C4          -3.1610    -4.6930    -0.0990 c          1 53D       0.608900
      8 C3          -2.5570    -3.3630    -0.0730 ca         1 53D      -0.205600
      9 C21          1.6900     4.2850    -1.7790 c3         1 53D      -0.090100
     10 C18         -1.2390     2.9480     0.1720 c6         1 53D       0.162300
     11 N17          0.1480     3.2030    -0.1710 n3         1 53D      -0.717600
     12 C16          0.9490     2.0580     0.2220 c6         1 53D       0.162300
     13 C19         -1.7800     1.6430    -0.3940 c6         1 53D       0.159800
     14 C15          0.4500     0.7230    -0.3280 c6         1 53D       0.159800
     15 C12          1.6000    -4.8450    -2.1140 cx         1 53D      -0.125400
     16 C28         -8.1840    -8.2550    -0.2320 c3         1 53D       0.151100
     17 C29         -7.8560    -5.9080    -0.4910 c3         1 53D       0.151100
     18 N27         -7.2360    -7.2130    -0.5590 n3         1 53D      -0.716600
     19 C26         -6.6040    -7.4260    -1.8480 c3         1 53D       0.165800
     20 C25         -5.6790    -8.6370    -1.8840 c3         1 53D      -0.100400
     21 C24         -4.7020    -8.6850    -0.7110 c3         1 53D       0.118000
     22 C11          0.5100    -3.8260    -2.1350 cx         1 53D       0.135500
     23 C22         -2.9170    -7.0600    -1.1510 c          1 53D       0.694300
     24 O4          -4.2040    -4.9240     0.5260 o          1 53D      -0.587100
     25 C6          -1.2900    -5.2980    -1.5200 cd         1 53D       0.175000
     26 N1          -0.7220    -4.0900    -1.4320 na         1 53D      -0.470800
     27 C10         -3.1870    -2.3310     0.6370 ca         1 53D      -0.068000
     28 C9          -2.6450    -1.0840     0.6650 ca         1 53D       0.066900
     29 H7           0.0660    -1.5630    -1.2740 ha         1 53D       0.143000
     30 H132         1.6820    -3.6290    -0.2700 hc         1 53D       0.088200
     31 H131         2.4280    -2.8080    -1.7180 hc         1 53D       0.088200
     32 H211         1.7460     4.6840    -2.7920 hc         1 53D       0.037700
     33 H213         1.8460     5.1080    -1.0800 hc         1 53D       0.037700
     34 H212         2.5160     3.5820    -1.6640 hc         1 53D       0.037700
     35 H202        -0.4440     4.3690    -1.7640 h1         1 53D       0.028200
     36 H201         0.1950     2.8260    -2.2840 h1         1 53D       0.028200
     37 H181        -1.8570     3.7770    -0.1760 h1         1 53D       0.063700
     38 H182        -1.3260     2.9150     1.2630 h1         1 53D       0.063700
     39 H161         0.9490     1.9990     1.3150 h1         1 53D       0.063700
     40 H162         1.9860     2.2000    -0.0840 h1         1 53D       0.063700
     41 H192        -1.7970     1.6790    -1.4920 h1         1 53D       0.045200
     42 H191        -2.8070     1.5100    -0.0670 h1         1 53D       0.045200
     43 H152         1.0580    -0.0750     0.1020 h1         1 53D       0.045200
     44 H151         0.5800     0.6810    -1.4190 h1         1 53D       0.045200
     45 H121         1.4550    -5.7540    -1.5430 hc         1 53D       0.088200
     46 H122         2.1570    -4.9790    -3.0310 hc         1 53D       0.088200
     47 H282        -8.6190    -8.0660     0.7500 h1         1 53D       0.029200
     48 H281        -9.0110    -8.3290    -0.9560 h1         1 53D       0.029200
     49 H283        -7.6930    -9.2280    -0.1880 h1         1 53D       0.029200
     50 H291        -8.2780    -5.7450     0.5020 h1         1 53D       0.029200
     51 H293        -7.1120    -5.1300    -0.6670 h1         1 53D       0.029200
     52 H292        -8.6660    -5.7700    -1.2240 h1         1 53D       0.029200
     53 H261        -6.0160    -6.5330    -2.0790 h1         1 53D       0.030700
     54 H262        -7.3480    -7.5190    -2.6580 h1         1 53D       0.030700
     55 H252        -6.2480    -9.5700    -1.8950 hc         1 53D       0.046700
     56 H251        -5.1260    -8.6100    -2.8260 hc         1 53D       0.046700
     57 H242        -5.2360    -8.9300     0.2070 h1         1 53D       0.053700
     58 H241        -3.9710    -9.4780    -0.8700 h1         1 53D       0.053700
     59 H23         -4.4890    -6.7200     0.0570 hn         1 53D       0.358500
     60 H11          0.3690    -3.2610    -3.0500 h1         1 53D       0.099700
     61 H6          -0.7600    -6.0190    -2.1260 h4         1 53D       0.181000
     62 H10         -4.0960    -2.5350     1.1880 ha         1 53D       0.176000
     63 C20          0.3360     3.6330    -1.5500 c3         1 53D       0.167800
     64 F9          -3.2430    -0.1380     1.4080 f          1 53D      -0.138900
     65 O22         -2.3020    -7.8030    -1.9120 o          1 53D      -0.655100
     66 N23         -4.0180    -7.4340    -0.4880 ns         1 53D      -0.553900
@<TRIPOS>BOND
     1     1     7 1   
     2     1    23 1   
     3     1    25 2   
     4     2     3 ar  
     5     2     8 ar  
     6     2    26 1   
     7     3     6 ar  
     8     3    29 1   
     9     4     6 1   
    10     4    13 1   
    11     4    14 1   
    12     5    15 1   
    13     5    22 1   
    14     5    30 1   
    15     5    31 1   
    16     6    28 ar  
    17     7     8 1   
    18     7    24 2   
    19     8    27 ar  
    20     9    32 1   
    21     9    33 1   
    22     9    34 1   
    23     9    63 1   
    24    10    11 1   
    25    10    13 1   
    26    10    37 1   
    27    10    38 1   
    28    11    12 1   
    29    11    63 1   
    30    12    14 1   
    31    12    39 1   
    32    12    40 1   
    33    13    41 1   
    34    13    42 1   
    35    14    43 1   
    36    14    44 1   
    37    15    22 1   
    38    15    45 1   
    39    15    46 1   
    40    16    18 1   
    41    16    47 1   
    42    16    48 1   
    43    16    49 1   
    44    17    18 1   
    45    17    50 1   
    46    17    51 1   
    47    17    52 1   
    48    18    19 1   
    49    19    20 1   
    50    19    53 1   
    51    19    54 1   
    52    20    21 1   
    53    20    55 1   
    54    20    56 1   
    55    21    57 1   
    56    21    58 1   
    57    21    66 1   
    58    22    26 1   
    59    22    60 1   
    60    23    65 2   
    61    23    66 1   
    62    25    26 1   
    63    25    61 1   
    64    27    28 ar  
    65    27    62 1   
    66    28    64 1   
    67    35    63 1   
    68    36    63 1   
    69    59    66 1   
@<TRIPOS>SUBSTRUCTURE
     1 53D         1 TEMP              0 ****  ****    0 ROOT
