@<TRIPOS>MOLECULE
53D
   66    69     1     0     0
SMALL
No Charge or Current Charge


@<TRIPOS>ATOM
      1 C5          -2.3520    -5.6010    -1.0200 cc         1 53D      -0.368400
      2 C2          -1.2750    -3.0580    -0.7030 ca         1 53D       0.330000
      3 C7          -0.8190    -1.7250    -0.7230 ca         1 53D      -0.215000
      4 N14         -0.9190     0.6010     0.0250 nh         1 53D      -0.780400
      5 C13          1.9950    -3.5180    -1.3230 cx         1 53D      -0.125400
      6 C8          -1.4150    -0.7300     0.0720 ca         1 53D       0.312000
      7 C4          -2.8740    -4.7700     0.0760 c          1 53D       0.608900
      8 C3          -2.3570    -3.3890     0.1120 ca         1 53D      -0.205600
      9 C21          1.8150     4.1070    -2.0070 c3         1 53D      -0.090100
     10 C18         -1.3240     3.1180     0.0430 c6         1 53D       0.162300
     11 N17          0.1200     3.3950    -0.2440 n3         1 53D      -0.717600
     12 C16          0.9430     2.3030     0.3750 c6         1 53D       0.162300
     13 C19         -1.7950     1.7130    -0.4650 c6         1 53D       0.159800
     14 C15          0.5470     0.8760    -0.1300 c6         1 53D       0.159800
     15 C12          1.8570    -4.8560    -2.0040 cx         1 53D      -0.125400
     16 C28         -8.4500    -8.6330    -0.4110 c3         1 53D       0.151100
     17 C29         -8.4050    -6.1820    -0.3160 c3         1 53D       0.151100
     18 N27         -7.6140    -7.4150    -0.5270 n3         1 53D      -0.716600
     19 C26         -6.8090    -7.3550    -1.7740 c3         1 53D       0.165800
     20 C25         -5.7620    -8.4820    -1.9380 c3         1 53D      -0.100400
     21 C24         -4.7490    -8.5800    -0.7760 c3         1 53D       0.118000
     22 C11          0.7310    -3.8510    -2.0790 cx         1 53D       0.135500
     23 C22         -2.9260    -6.9300    -1.3400 c          1 53D       0.627300
     24 O4          -3.7160    -5.1360     0.8880 o          1 53D      -0.587100
     25 C6          -1.2730    -5.2130    -1.8020 cd         1 53D       0.125000
     26 N1          -0.5940    -4.0240    -1.4600 na         1 53D      -0.609200
     27 C10         -2.9650    -2.4100     0.9270 ca         1 53D      -0.050000
     28 C9          -2.4980    -1.0900     0.9100 ca         1 53D       0.102000
     29 H7           0.0040    -1.4490    -1.3690 ha         1 53D       0.125000
     30 H132         1.9410    -3.4940    -0.2370 hc         1 53D       0.088200
     31 H131         2.6660    -2.7860    -1.7640 hc         1 53D       0.088200
     32 H211         1.8910     4.3800    -3.0660 hc         1 53D       0.037700
     33 H213         2.0700     4.9890    -1.4070 hc         1 53D       0.037700
     34 H212         2.5520     3.3210    -1.8100 hc         1 53D       0.037700
     35 H202        -0.3060     4.3990    -2.0560 h1         1 53D       0.028200
     36 H201         0.1840     2.7200    -2.2730 h1         1 53D       0.028200
     37 H181        -1.9650     3.8920    -0.4030 h1         1 53D       0.063700
     38 H182        -1.4990     3.1600     1.1290 h1         1 53D       0.063700
     39 H161         0.8090     2.3200     1.4660 h1         1 53D       0.063700
     40 H162         2.0160     2.4610     0.2010 h1         1 53D       0.063700
     41 H192        -1.8060     1.7160    -1.5640 h1         1 53D       0.045200
     42 H191        -2.8330     1.5610    -0.1380 h1         1 53D       0.045200
     43 H152         1.1300     0.1360     0.4380 h1         1 53D       0.045200
     44 H151         0.8370     0.7770    -1.1860 h1         1 53D       0.045200
     45 H121         1.7170    -5.7300    -1.3740 hc         1 53D       0.088200
     46 H122         2.4360    -5.0300    -2.9070 hc         1 53D       0.088200
     47 H282        -9.0180    -8.6240     0.5290 h1         1 53D       0.029200
     48 H281        -9.1640    -8.6990    -1.2420 h1         1 53D       0.029200
     49 H283        -7.8330    -9.5410    -0.4110 h1         1 53D       0.029200
     50 H291        -8.9260    -6.2150     0.6500 h1         1 53D       0.029200
     51 H293        -7.7540    -5.2980    -0.3170 h1         1 53D       0.029200
     52 H292        -9.1560    -6.0580    -1.1080 h1         1 53D       0.029200
     53 H261        -6.2730    -6.3970    -1.8130 h1         1 53D       0.030700
     54 H262        -7.4770    -7.3740    -2.6460 h1         1 53D       0.030700
     55 H252        -6.2690    -9.4460    -2.0540 hc         1 53D       0.046700
     56 H251        -5.2150    -8.3140    -2.8740 hc         1 53D       0.046700
     57 H242        -5.2830    -8.8110     0.1550 h1         1 53D       0.053700
     58 H241        -4.0490    -9.4030    -0.9700 h1         1 53D       0.053700
     59 H23         -4.2840    -6.7030     0.1520 hn         1 53D       0.358500
     60 H11          0.5780    -3.3480    -3.0360 h1         1 53D       0.099700
     61 H6          -0.8470    -5.8270    -2.5970 h4         1 53D       0.231000
     62 H10         -3.8070    -2.6630     1.5680 ha         1 53D       0.158000
     63 C20          0.3840     3.6280    -1.6890 c3         1 53D       0.167800
     64 F9          -3.0950    -0.1770     1.7160 f          1 53D      -0.174000
     65 O22         -2.4910    -7.6370    -2.2380 o          1 53D      -0.655100
     66 N23         -3.9890    -7.3440    -0.5800 ns         1 53D      -0.486900
@<TRIPOS>BOND
     1     1     7 1   
     2     1    23 1   
     3     1    25 2   
     4     2     3 ar  
     5     2     8 ar  
     6     2    26 1   
     7     3     6 ar  
     8     3    29 1   
     9     4     6 1   
    10     4    13 1   
    11     4    14 1   
    12     5    15 1   
    13     5    22 1   
    14     5    30 1   
    15     5    31 1   
    16     6    28 ar  
    17     7     8 1   
    18     7    24 2   
    19     8    27 ar  
    20     9    32 1   
    21     9    33 1   
    22     9    34 1   
    23     9    63 1   
    24    10    11 1   
    25    10    13 1   
    26    10    37 1   
    27    10    38 1   
    28    11    12 1   
    29    11    63 1   
    30    12    14 1   
    31    12    39 1   
    32    12    40 1   
    33    13    41 1   
    34    13    42 1   
    35    14    43 1   
    36    14    44 1   
    37    15    22 1   
    38    15    45 1   
    39    15    46 1   
    40    16    18 1   
    41    16    47 1   
    42    16    48 1   
    43    16    49 1   
    44    17    18 1   
    45    17    50 1   
    46    17    51 1   
    47    17    52 1   
    48    18    19 1   
    49    19    20 1   
    50    19    53 1   
    51    19    54 1   
    52    20    21 1   
    53    20    55 1   
    54    20    56 1   
    55    21    57 1   
    56    21    58 1   
    57    21    66 1   
    58    22    26 1   
    59    22    60 1   
    60    23    65 2   
    61    23    66 1   
    62    25    26 1   
    63    25    61 1   
    64    27    28 ar  
    65    27    62 1   
    66    28    64 1   
    67    35    63 1   
    68    36    63 1   
    69    59    66 1   
@<TRIPOS>SUBSTRUCTURE
     1 53D         1 TEMP              0 ****  ****    0 ROOT
