@<TRIPOS>MOLECULE
53E
   20    21     1     0     0
SMALL
No Charge or Current Charge


@<TRIPOS>ATOM
      1 C01         -2.8870     0.9790     0.2850 c6         1 53E       0.121600
      2 C02         -1.8670     1.8720    -0.4510 c6         1 53E       0.115600
      3 O03         -0.5260     1.4840    -0.0880 os         1 53E      -0.283100
      4 C04         -0.2410     0.1320    -0.0200 ca         1 53E       0.075100
      5 C05          1.1010    -0.3080     0.0140 ca         1 53E      -0.116600
      6 C06          1.3700    -1.6950     0.0260 ca         1 53E      -0.094000
      7 C07          0.3200    -2.6300     0.0210 ca         1 53E      -0.143000
      8 C08         -1.0140    -2.1910     0.0090 ca         1 53E      -0.140000
      9 C09         -1.2990    -0.8170    -0.0030 ca         1 53E       0.018100
     10 O10         -2.6180    -0.4100    -0.0050 os         1 53E      -0.355100
     11 C11          2.2440     0.6740     0.0140 c          1 53E       0.720600
     12 O12          3.1170     0.5330    -0.8320 o          1 53E      -0.712000
     13 O13          2.3040     1.5050     0.9100 o          1 53E      -0.712000
     14 H1          -2.8030     1.1400     1.3690 h1         1 53E       0.046700
     15 H2          -3.9130     1.2230    -0.0240 h1         1 53E       0.046700
     16 H3          -1.9910     1.7530    -1.5370 h1         1 53E       0.049700
     17 H4          -2.0210     2.9290    -0.1970 h1         1 53E       0.049700
     18 H5           2.4000    -2.0450     0.0410 ha         1 53E       0.125000
     19 H6           0.5420    -3.6940     0.0310 ha         1 53E       0.090000
     20 H7          -1.8250    -2.9160     0.0120 ha         1 53E       0.097000
@<TRIPOS>BOND
     1     1     2 1   
     2     1    10 1   
     3     1    14 1   
     4     1    15 1   
     5     2     3 1   
     6     2    16 1   
     7     2    17 1   
     8     3     4 1   
     9     4     5 ar  
    10     4     9 ar  
    11     5     6 ar  
    12     5    11 1   
    13     6     7 ar  
    14     6    18 1   
    15     7     8 ar  
    16     7    19 1   
    17     8     9 ar  
    18     8    20 1   
    19     9    10 1   
    20    11    12 1   
    21    11    13 1   
@<TRIPOS>SUBSTRUCTURE
     1 53E         1 TEMP              0 ****  ****    0 ROOT
