@<TRIPOS>MOLECULE
53E
   20    21     1     0     0
SMALL
abcg2


@<TRIPOS>ATOM
      1 C01         -2.8350     0.9510     0.3010 c6         1 53E       0.121600
      2 C02         -1.8370     1.8020    -0.4420 c6         1 53E       0.115600
      3 O03         -0.5210     1.4740    -0.0350 os         1 53E      -0.283100
      4 C04         -0.2580     0.1440     0.0040 ca         1 53E       0.075100
      5 C05          1.0700    -0.2900    -0.0040 ca         1 53E      -0.116600
      6 C06          1.3260    -1.6590    -0.0220 ca         1 53E      -0.094000
      7 C07          0.2940    -2.5850    -0.0070 ca         1 53E      -0.143000
      8 C08         -1.0220    -2.1510     0.0120 ca         1 53E      -0.140000
      9 C09         -1.3020    -0.7910     0.0090 ca         1 53E       0.018100
     10 O10         -2.6070    -0.4180     0.0130 os         1 53E      -0.355100
     11 C11          2.2470     0.6790     0.0360 c          1 53E       0.720600
     12 O12          3.2310     0.3660    -0.6600 o          1 53E      -0.712000
     13 O13          2.1370     1.6680     0.7810 o          1 53E      -0.712000
     14 H1          -2.7600     1.1290     1.3790 h1         1 53E       0.046700
     15 H2          -3.8510     1.1830    -0.0160 h1         1 53E       0.046700
     16 H3          -1.9480     1.6610    -1.5240 h1         1 53E       0.049700
     17 H4          -1.9900     2.8570    -0.2180 h1         1 53E       0.049700
     18 H5           2.3530    -1.9990    -0.0460 ha         1 53E       0.125000
     19 H6           0.5080    -3.6460    -0.0070 ha         1 53E       0.090000
     20 H7          -1.8430    -2.8570     0.0210 ha         1 53E       0.097000
@<TRIPOS>BOND
     1     1     2 1   
     2     1    10 1   
     3     1    14 1   
     4     1    15 1   
     5     2     3 1   
     6     2    16 1   
     7     2    17 1   
     8     3     4 1   
     9     4     5 ar  
    10     4     9 ar  
    11     5     6 ar  
    12     5    11 1   
    13     6     7 ar  
    14     6    18 1   
    15     7     8 ar  
    16     7    19 1   
    17     8     9 ar  
    18     8    20 1   
    19     9    10 1   
    20    11    12 1   
    21    11    13 1   
@<TRIPOS>SUBSTRUCTURE
     1 53E         1 TEMP              0 ****  ****    0 ROOT
