@<TRIPOS>MOLECULE
53F
   83    86     1     0     0
SMALL
No Charge or Current Charge


@<TRIPOS>ATOM
      1 N1         -11.9770    16.0530    -6.2510 nv         1 53F      -1.092000
      2 C2         -10.8270    15.8820    -5.5360 ca         1 53F       0.365000
      3 C4          -8.5640    16.5890    -4.9940 ca         1 53F       0.034000
      4 C5          -8.4610    15.5320    -4.0690 ca         1 53F      -0.382500
      5 C6          -9.5420    14.6480    -3.8840 ca         1 53F       0.034000
      6 C12         -6.3030    15.8010    -0.5500 c3         1 53F       0.209800
      7 C13         -5.8180    14.3980    -0.0880 c3         1 53F      -0.074700
      8 C14         -4.7110    14.5280     0.9840 c3         1 53F      -0.086600
      9 C15         -6.9760    13.5070     0.4270 c3         1 53F      -0.086600
     10 C1         -14.9470    11.6620     2.4920 c3         1 53F       0.142900
     11 C3          -9.7520    16.7590    -5.7240 ca         1 53F      -0.211000
     12 O1         -13.7060    11.5560     1.7710 os         1 53F      -0.354100
     13 C7         -10.7240    14.8300    -4.6190 ca         1 53F      -0.211000
     14 O10         -5.9160    16.2090    -3.5960 o          1 53F      -0.550000
     15 S8          -6.9590    15.3010    -3.1080 sy         1 53F       1.197600
     16 O9          -6.7550    13.8530    -3.0120 o          1 53F      -0.550000
     17 N11         -7.4110    15.8420    -1.5470 n3         1 53F      -0.741500
     18 C16         -8.1330    17.1530    -1.5620 c3         1 53F       0.206800
     19 C17         -8.8450    17.5610    -0.2340 c3         1 53F       0.160300
     20 O18         -9.6200    18.7600    -0.4340 oh         1 53F      -0.672000
     21 C19         -9.7430    16.4300     0.3570 c3         1 53F       0.095700
     22 C32        -10.9420    16.0120    -0.5340 c3         1 53F      -0.037100
     23 C07        -11.7110    14.8350     0.0580 ca         1 53F      -0.123300
     24 C08        -11.1600    13.5410     0.0080 ca         1 53F      -0.068000
     25 C06        -12.9580    15.0330     0.6800 ca         1 53F      -0.068000
     26 C05        -13.6450    13.9500     1.2560 ca         1 53F      -0.171500
     27 C09        -13.0860    12.6540     1.2100 ca         1 53F       0.131100
     28 O41         -9.6160    12.6820     5.4200 oh         1 53F      -0.726000
     29 C03        -11.8470    12.4580     0.5820 ca         1 53F      -0.171500
     30 N20        -10.2060    16.7570     1.7120 ns         1 53F      -0.496900
     31 C21         -9.4550    16.6050     2.8390 c          1 53F       0.634100
     32 O22         -8.2820    16.2720     2.8630 o          1 53F      -0.537000
     33 O23        -10.2540    16.8010     3.9210 os         1 53F      -0.475100
     34 C24         -9.7840    16.5170     5.2550 c6         1 53F       0.198300
     35 C01        -10.4330    17.4980     6.2380 c6         1 53F      -0.118400
     36 C31        -10.0990    15.0690     5.7290 c5         1 53F      -0.170700
     37 C41         -9.8690    13.9080     4.7170 c5         1 53F       0.140300
     38 C29        -11.2440    13.8730     3.9490 c5         1 53F       0.170600
     39 O28        -12.2220    14.5180     4.8050 os         1 53F      -0.485000
     40 C27        -11.5850    14.7720     6.0640 c5         1 53F       0.395300
     41 O01        -12.2620    15.8800     6.7180 os         1 53F      -0.444000
     42 C02        -11.9490    17.2420     6.3390 c6         1 53F       0.155600
     43 H1         -11.9800    16.6940    -7.0420 hn         1 53F       0.471500
     44 H2         -12.6780    15.3150    -6.2510 hn         1 53F       0.471500
     45 H3          -7.7370    17.2810    -5.1480 ha         1 53F       0.131000
     46 H4          -9.4720    13.8300    -3.1680 ha         1 53F       0.131000
     47 H5          -5.4410    16.3650    -0.9310 h1         1 53F       0.041700
     48 H6          -6.6120    16.3120     0.3690 h1         1 53F       0.041700
     49 H7          -5.3550    13.8890    -0.9400 hc         1 53F       0.084700
     50 H8          -4.3280    13.5400     1.2690 hc         1 53F       0.036200
     51 H9          -3.8700    15.1200     0.6040 hc         1 53F       0.036200
     52 H10         -5.0960    15.0190     1.8870 hc         1 53F       0.036200
     53 H11         -6.6010    12.5210     0.7270 hc         1 53F       0.036200
     54 H12         -7.4650    13.9650     1.2960 hc         1 53F       0.036200
     55 H13         -7.7310    13.3550    -0.3520 hc         1 53F       0.036200
     56 H14        -15.2560    10.6770     2.8650 h1         1 53F       0.044367
     57 H15        -14.8410    12.3340     3.3540 h1         1 53F       0.044367
     58 H16        -15.7450    12.0440     1.8430 h1         1 53F       0.044367
     59 H17         -9.8320    17.5760    -6.4350 ha         1 53F       0.118000
     60 H18        -11.5580    14.1510    -4.4700 ha         1 53F       0.118000
     61 H19         -7.4350    17.9560    -1.8350 h1         1 53F       0.064200
     62 H20         -8.9190    17.1580    -2.3240 h1         1 53F       0.064200
     63 H21         -8.0630    17.7760     0.5050 h1         1 53F       0.054700
     64 H22        -10.0460    18.9650     0.4270 ho         1 53F       0.449000
     65 H23         -9.1040    15.5420     0.4500 h1         1 53F       0.103700
     66 H24        -11.6080    16.8710    -0.6810 hc         1 53F       0.063700
     67 H25        -10.5790    15.7380    -1.5300 hc         1 53F       0.063700
     68 H26        -10.1980    13.3740    -0.4710 ha         1 53F       0.122000
     69 H27        -13.3950    16.0290     0.7280 ha         1 53F       0.122000
     70 H28        -14.6010    14.1360     1.7360 ha         1 53F       0.123000
     71 H29         -8.6720    12.6970     5.7050 ho         1 53F       0.508000
     72 H30        -11.4140    11.4620     0.5440 ha         1 53F       0.123000
     73 H31        -11.1820    16.9750     1.8610 hn         1 53F       0.318500
     74 H32         -8.6960    16.6830     5.2880 h1         1 53F       0.084700
     75 H33         -9.9730    17.3980     7.2300 hc         1 53F       0.064700
     76 H34        -10.2500    18.5310     5.9120 hc         1 53F       0.064700
     77 H35         -9.4820    14.9330     6.6240 hc         1 53F       0.078700
     78 H36         -9.0400    14.1170     4.0280 h1         1 53F       0.071700
     79 H37        -11.1940    14.4180     2.9980 h1         1 53F       0.058200
     80 H38        -11.5650    12.8450     3.7330 h1         1 53F       0.058200
     81 H39        -11.6600    13.8710     6.6900 h2         1 53F       0.087700
     82 H40        -12.3990    17.9270     7.0720 h1         1 53F       0.060200
     83 H41        -12.4180    17.4470     5.3660 h1         1 53F       0.060200
@<TRIPOS>BOND
     1     1     2 1   
     2     1    43 1   
     3     1    44 1   
     4     2    11 ar  
     5     2    13 ar  
     6     3     4 ar  
     7     3    11 ar  
     8     3    45 1   
     9     4     5 ar  
    10     4    15 1   
    11     5    13 ar  
    12     5    46 1   
    13     6     7 1   
    14     6    17 1   
    15     6    47 1   
    16     6    48 1   
    17     7     8 1   
    18     7     9 1   
    19     7    49 1   
    20     8    50 1   
    21     8    51 1   
    22     8    52 1   
    23     9    53 1   
    24     9    54 1   
    25     9    55 1   
    26    10    12 1   
    27    10    56 1   
    28    10    57 1   
    29    10    58 1   
    30    11    59 1   
    31    12    27 1   
    32    13    60 1   
    33    14    15 2   
    34    15    16 2   
    35    15    17 1   
    36    17    18 1   
    37    18    19 1   
    38    18    61 1   
    39    18    62 1   
    40    19    20 1   
    41    19    21 1   
    42    19    63 1   
    43    20    64 1   
    44    21    22 1   
    45    21    30 1   
    46    21    65 1   
    47    22    23 1   
    48    22    66 1   
    49    22    67 1   
    50    23    24 ar  
    51    23    25 ar  
    52    24    29 ar  
    53    24    68 1   
    54    25    26 ar  
    55    25    69 1   
    56    26    27 ar  
    57    26    70 1   
    58    27    29 ar  
    59    28    37 1   
    60    28    71 1   
    61    29    72 1   
    62    30    31 1   
    63    30    73 1   
    64    31    32 2   
    65    31    33 1   
    66    33    34 1   
    67    34    35 1   
    68    34    36 1   
    69    34    74 1   
    70    35    42 1   
    71    35    75 1   
    72    35    76 1   
    73    36    37 1   
    74    36    40 1   
    75    36    77 1   
    76    37    38 1   
    77    37    78 1   
    78    38    39 1   
    79    38    79 1   
    80    38    80 1   
    81    39    40 1   
    82    40    41 1   
    83    40    81 1   
    84    41    42 1   
    85    42    82 1   
    86    42    83 1   
@<TRIPOS>SUBSTRUCTURE
     1 53F         1 TEMP              0 ****  ****    0 ROOT
