@<TRIPOS>MOLECULE
53F
   83    86     1     0     0
SMALL
abcg2


@<TRIPOS>ATOM
      1 N1          -8.4190    16.8700    -8.1740 nv         1 53F      -1.092000
      2 C2          -8.4070    16.3320    -6.9130 ca         1 53F       0.365000
      3 C4          -7.1800    15.5330    -4.9820 ca         1 53F       0.034000
      4 C5          -8.3800    15.3280    -4.2970 ca         1 53F      -0.382500
      5 C6          -9.5950    15.6190    -4.9250 ca         1 53F       0.034000
      6 C12         -7.1070    16.9750    -1.6950 c3         1 53F       0.209800
      7 C13         -6.0230    16.5380    -0.7090 c3         1 53F      -0.074700
      8 C14         -4.8030    17.4420    -0.9010 c3         1 53F      -0.086600
      9 C15         -6.5120    16.5690     0.7360 c3         1 53F      -0.086600
     10 C1         -13.9980    10.2510     3.4860 c3         1 53F       0.142900
     11 C3          -7.1930    16.0260    -6.2720 ca         1 53F      -0.211000
     12 O1         -12.8630    10.3930     2.6320 os         1 53F      -0.354100
     13 C7          -9.6090    16.1110    -6.2140 ca         1 53F      -0.211000
     14 O10         -7.1120    14.1230    -2.3730 o          1 53F      -0.550000
     15 S8          -8.3600    14.8070    -2.6200 sy         1 53F       1.197600
     16 O9          -9.5980    14.1170    -2.3360 o          1 53F      -0.550000
     17 N11         -8.3500    16.1680    -1.6840 n3         1 53F      -0.741500
     18 C16         -9.6020    16.9390    -1.6490 c3         1 53F       0.206800
     19 C17        -10.0450    17.2140    -0.2150 c3         1 53F       0.160300
     20 O18        -11.1090    18.1640    -0.3100 oh         1 53F      -0.672000
     21 C19        -10.4540    15.9350     0.5320 c3         1 53F       0.095700
     22 C32        -11.7540    15.3070     0.0060 c3         1 53F      -0.037100
     23 C07        -12.0880    14.0070     0.6900 ca         1 53F      -0.123300
     24 C08        -11.2770    12.8770     0.5240 ca         1 53F      -0.068000
     25 C06        -13.1940    13.8920     1.5220 ca         1 53F      -0.068000
     26 C05        -13.5000    12.7030     2.1830 ca         1 53F      -0.171500
     27 C09        -12.6730    11.5960     2.0180 ca         1 53F       0.131100
     28 O41        -12.2650    12.4440     5.6970 oh         1 53F      -0.726000
     29 C03        -11.5590    11.6900     1.1770 ca         1 53F      -0.171500
     30 N20        -10.5570    16.1930     1.9620 ns         1 53F      -0.496900
     31 C21         -9.8580    15.4990     2.8820 c          1 53F       0.634100
     32 O22         -8.9590    14.7080     2.6480 o          1 53F      -0.537000
     33 O23        -10.2860    15.8180     4.1290 os         1 53F      -0.475100
     34 C24         -9.6630    15.1520     5.2570 c6         1 53F       0.198300
     35 C01         -9.0800    16.2270     6.1600 c6         1 53F      -0.118400
     36 C31        -10.6980    14.3010     6.0050 c5         1 53F      -0.170700
     37 C41        -11.7290    13.6260     5.0930 c5         1 53F       0.140300
     38 C29        -12.8540    14.6610     5.0160 c5         1 53F       0.170600
     39 O28        -12.6890    15.5550     6.1290 os         1 53F      -0.485000
     40 C27        -11.6050    15.1060     6.9490 c5         1 53F       0.395300
     41 O01        -11.0240    16.1830     7.6150 os         1 53F      -0.444000
     42 C02        -10.1910    17.0310     6.8080 c6         1 53F       0.155600
     43 H1          -7.5880    16.7690    -8.7340 hn         1 53F       0.471500
     44 H2          -9.2820    16.8270    -8.6930 hn         1 53F       0.471500
     45 H3          -6.2400    15.2920    -4.5070 ha         1 53F       0.131000
     46 H4         -10.5290    15.4440    -4.4090 ha         1 53F       0.131000
     47 H5          -6.6950    17.0080    -2.7080 h1         1 53F       0.041700
     48 H6          -7.4120    17.9940    -1.4520 h1         1 53F       0.041700
     49 H7          -5.7340    15.5160    -0.9570 hc         1 53F       0.084700
     50 H8          -3.9920    17.1410    -0.2350 hc         1 53F       0.036200
     51 H9          -4.4330    17.3980    -1.9290 hc         1 53F       0.036200
     52 H10         -5.0530    18.4840    -0.6780 hc         1 53F       0.036200
     53 H11         -5.7160    16.2580     1.4160 hc         1 53F       0.036200
     54 H12         -6.8200    17.5800     1.0200 hc         1 53F       0.036200
     55 H13         -7.3600    15.9020     0.8880 hc         1 53F       0.036200
     56 H14        -13.9600     9.2320     3.8630 h1         1 53F       0.044367
     57 H15        -13.9470    10.9550     4.3180 h1         1 53F       0.044367
     58 H16        -14.9270    10.4010     2.9300 h1         1 53F       0.044367
     59 H17         -6.2610    16.1770    -6.8030 ha         1 53F       0.118000
     60 H18        -10.5520    16.3260    -6.7010 ha         1 53F       0.118000
     61 H19         -9.4610    17.8910    -2.1630 h1         1 53F       0.064200
     62 H20        -10.3840    16.3990    -2.1750 h1         1 53F       0.064200
     63 H21         -9.2070    17.6580     0.3290 h1         1 53F       0.054700
     64 H22        -11.2200    18.5960     0.5460 ho         1 53F       0.449000
     65 H23         -9.6380    15.2260     0.4130 h1         1 53F       0.103700
     66 H24        -12.5710    16.0160     0.1460 hc         1 53F       0.063700
     67 H25        -11.6470    15.1420    -1.0670 hc         1 53F       0.063700
     68 H26        -10.4120    12.9350    -0.1250 ha         1 53F       0.122000
     69 H27        -13.8360    14.7520     1.6720 ha         1 53F       0.122000
     70 H28        -14.3630    12.6620     2.8300 ha         1 53F       0.123000
     71 H29        -11.5800    11.7630     5.6880 ho         1 53F       0.508000
     72 H30        -10.9240    10.8220     1.0500 ha         1 53F       0.123000
     73 H31        -11.3530    16.7140     2.3000 hn         1 53F       0.318500
     74 H32         -8.8840    14.5040     4.8650 h1         1 53F       0.084700
     75 H33         -8.4750    15.7480     6.9340 hc         1 53F       0.064700
     76 H34         -8.4270    16.8800     5.5780 hc         1 53F       0.064700
     77 H35        -10.1460    13.5520     6.5740 hc         1 53F       0.078700
     78 H36        -11.3310    13.3900     4.1060 h1         1 53F       0.071700
     79 H37        -12.8000    15.2380     4.0960 h1         1 53F       0.058200
     80 H38        -13.8240    14.1660     5.0790 h1         1 53F       0.058200
     81 H39        -11.9940    14.4630     7.7430 h2         1 53F       0.087700
     82 H40         -9.7930    17.7790     7.4910 h1         1 53F       0.060200
     83 H41        -10.7980    17.5360     6.0520 h1         1 53F       0.060200
@<TRIPOS>BOND
     1     1     2 1   
     2     1    43 1   
     3     1    44 1   
     4     2    11 ar  
     5     2    13 ar  
     6     3     4 ar  
     7     3    11 ar  
     8     3    45 1   
     9     4     5 ar  
    10     4    15 1   
    11     5    13 ar  
    12     5    46 1   
    13     6     7 1   
    14     6    17 1   
    15     6    47 1   
    16     6    48 1   
    17     7     8 1   
    18     7     9 1   
    19     7    49 1   
    20     8    50 1   
    21     8    51 1   
    22     8    52 1   
    23     9    53 1   
    24     9    54 1   
    25     9    55 1   
    26    10    12 1   
    27    10    56 1   
    28    10    57 1   
    29    10    58 1   
    30    11    59 1   
    31    12    27 1   
    32    13    60 1   
    33    14    15 2   
    34    15    16 2   
    35    15    17 1   
    36    17    18 1   
    37    18    19 1   
    38    18    61 1   
    39    18    62 1   
    40    19    20 1   
    41    19    21 1   
    42    19    63 1   
    43    20    64 1   
    44    21    22 1   
    45    21    30 1   
    46    21    65 1   
    47    22    23 1   
    48    22    66 1   
    49    22    67 1   
    50    23    24 ar  
    51    23    25 ar  
    52    24    29 ar  
    53    24    68 1   
    54    25    26 ar  
    55    25    69 1   
    56    26    27 ar  
    57    26    70 1   
    58    27    29 ar  
    59    28    37 1   
    60    28    71 1   
    61    29    72 1   
    62    30    31 1   
    63    30    73 1   
    64    31    32 2   
    65    31    33 1   
    66    33    34 1   
    67    34    35 1   
    68    34    36 1   
    69    34    74 1   
    70    35    42 1   
    71    35    75 1   
    72    35    76 1   
    73    36    37 1   
    74    36    40 1   
    75    36    77 1   
    76    37    38 1   
    77    37    78 1   
    78    38    39 1   
    79    38    79 1   
    80    38    80 1   
    81    39    40 1   
    82    40    41 1   
    83    40    81 1   
    84    41    42 1   
    85    42    82 1   
    86    42    83 1   
@<TRIPOS>SUBSTRUCTURE
     1 53F         1 TEMP              0 ****  ****    0 ROOT
