@<TRIPOS>MOLECULE
53G
   26    27     1     0     0
SMALL
bcc


@<TRIPOS>ATOM
      1 N1          -2.2070    -1.4960    -0.6290 nb         1 53G      -0.621000
      2 C4           0.2060     1.6930     0.4440 ca         1 53G      -0.082000
      3 C5          -1.1470     1.8190     0.5760 ca         1 53G      -0.165300
      4 C6          -1.9940     0.7490     0.2180 ca         1 53G       0.298300
      5 C7          -1.4250    -0.4530    -0.2650 ca         1 53G       0.277300
      6 C8          -0.0230    -0.5670    -0.3700 ca         1 53G      -0.130300
      7 C10         -4.0630    -0.1370    -0.0190 ca         1 53G       0.302900
      8 O            2.7830     1.3750    -0.8510 o          1 53G      -0.591100
      9 N            2.9490    -0.6190     0.2010 n          1 53G      -0.471800
     10 C1           4.3490    -0.7510    -0.1480 c3         1 53G       0.086300
     11 C            2.4790    -1.5550     1.2040 c3         1 53G       0.086300
     12 C3           0.7810     0.4840    -0.0150 ca         1 53G      -0.131600
     13 C9          -3.4930    -1.3390    -0.5060 ca         1 53G       0.295900
     14 N2          -3.3360     0.8840     0.3350 nb         1 53G      -0.623000
     15 H1           0.8510     2.5220     0.7050 ha         1 53G       0.153000
     16 H2          -1.5910     2.7350     0.9430 ha         1 53G       0.156000
     17 H3           0.3870    -1.4970    -0.7450 ha         1 53G       0.157000
     18 H4          -5.1400    -0.0480     0.0660 h4         1 53G       0.031100
     19 H5           4.9950    -0.2810     0.5970 h1         1 53G       0.043867
     20 H6           4.6000    -1.8090    -0.1980 h1         1 53G       0.043867
     21 H7           4.5520    -0.3040    -1.1170 h1         1 53G       0.043867
     22 H8           1.5380    -1.2370     1.6400 h1         1 53G       0.043867
     23 H9           2.3500    -2.5540     0.7840 h1         1 53G       0.043867
     24 H10          3.2120    -1.6160     2.0090 h1         1 53G       0.043867
     25 H11         -4.1370    -2.1630    -0.7920 h4         1 53G       0.031100
     26 C2           2.2610     0.4490    -0.2400 c          1 53G       0.679700
@<TRIPOS>BOND
     1     1     5 ar  
     2     1    13 ar  
     3     2     3 ar  
     4     2    12 ar  
     5     2    15 1   
     6     3     4 ar  
     7     3    16 1   
     8     4     5 ar  
     9     4    14 ar  
    10     5     6 ar  
    11     6    12 ar  
    12     6    17 1   
    13     7    13 ar  
    14     7    14 ar  
    15     7    18 1   
    16     8    26 2   
    17     9    10 1   
    18     9    11 1   
    19     9    26 1   
    20    10    19 1   
    21    10    20 1   
    22    10    21 1   
    23    11    22 1   
    24    11    23 1   
    25    11    24 1   
    26    12    26 1   
    27    13    25 1   
@<TRIPOS>SUBSTRUCTURE
     1 53G         1 TEMP              0 ****  ****    0 ROOT
