@<TRIPOS>MOLECULE
53G
   26    27     1     0     0
SMALL
No Charge or Current Charge


@<TRIPOS>ATOM
      1 N1          -2.1580    -1.5440    -0.5320 nb         1 53G      -0.621000
      2 C4           0.1750     1.8100     0.3840 ca         1 53G      -0.064000
      3 C5          -1.2230     1.8960     0.4700 ca         1 53G      -0.082000
      4 C6          -2.0380     0.7890     0.1780 ca         1 53G       0.233000
      5 C7          -1.4190    -0.4430    -0.2230 ca         1 53G       0.212000
      6 C8          -0.0150    -0.5100    -0.3020 ca         1 53G      -0.047000
      7 C10         -4.1180    -0.1970    -0.0360 ca         1 53G       0.302900
      8 O            2.9410     1.5350    -0.4350 o          1 53G      -0.591100
      9 N            2.9720    -0.6870     0.1410 n          1 53G      -0.404800
     10 C1           4.4100    -0.8080    -0.1890 c3         1 53G       0.086300
     11 C            2.4600    -1.6560     1.1390 c3         1 53G       0.086300
     12 C3           0.7990     0.6000     0.0170 ca         1 53G      -0.131600
     13 C9          -3.5090    -1.4100    -0.4350 ca         1 53G       0.295900
     14 N2          -3.3910     0.9110     0.2720 nb         1 53G      -0.623000
     15 H1           0.7770     2.6870     0.6150 ha         1 53G       0.135000
     16 H2          -1.6850     2.8350     0.7650 ha         1 53G       0.138000
     17 H3           0.4350    -1.4380    -0.6420 ha         1 53G       0.139000
     18 H4          -5.2010    -0.1120     0.0360 h4         1 53G       0.031100
     19 H5           5.0050    -0.2280     0.5280 h1         1 53G       0.043867
     20 H6           4.7200    -1.8600    -0.1450 h1         1 53G       0.043867
     21 H7           4.5950    -0.4310    -1.2030 h1         1 53G       0.043867
     22 H8           1.6940    -1.1930     1.7740 h1         1 53G       0.043867
     23 H9           2.0330    -2.5270     0.6270 h1         1 53G       0.043867
     24 H10          3.2780    -1.9960     1.7860 h1         1 53G       0.043867
     25 H11         -4.1100    -2.2850    -0.6780 h4         1 53G       0.031100
     26 C2           2.3100     0.5440    -0.0840 c          1 53G       0.612700
@<TRIPOS>BOND
     1     1     5 ar  
     2     1    13 ar  
     3     2     3 ar  
     4     2    12 ar  
     5     2    15 1   
     6     3     4 ar  
     7     3    16 1   
     8     4     5 ar  
     9     4    14 ar  
    10     5     6 ar  
    11     6    12 ar  
    12     6    17 1   
    13     7    13 ar  
    14     7    14 ar  
    15     7    18 1   
    16     8    26 2   
    17     9    10 1   
    18     9    11 1   
    19     9    26 1   
    20    10    19 1   
    21    10    20 1   
    22    10    21 1   
    23    11    22 1   
    24    11    23 1   
    25    11    24 1   
    26    12    26 1   
    27    13    25 1   
@<TRIPOS>SUBSTRUCTURE
     1 53G         1 TEMP              0 ****  ****    0 ROOT
