@<TRIPOS>MOLECULE
53H
   56    58     1     0     0
SMALL
No Charge or Current Charge


@<TRIPOS>ATOM
      1 C1          -2.8640    -1.0790     1.0230 c          1 53H       0.588100
      2 C2           3.3700    -1.9570     1.6360 ca         1 53H       0.187900
      3 C3          -2.6950    -2.5190     0.4010 c3         1 53H       0.108500
      4 C4           2.7470    -0.5340    -0.0420 ca         1 53H       0.146500
      5 C5           3.1300    -1.4650    -0.9750 ca         1 53H      -0.109600
      6 C6           3.6480    -2.6920    -0.5130 ca         1 53H       0.452900
      7 C7          -1.2490    -2.7860    -0.1710 c3         1 53H      -0.027000
      8 N1           3.7760    -2.9440     0.7990 nb         1 53H      -0.301000
      9 N2          -3.5520    -0.1950     0.2470 ns         1 53H      -0.621300
     10 O1          -2.4710    -0.8000     2.1470 o          1 53H      -0.523100
     11 C8           2.4240     0.2160    -2.1150 cc         1 53H       0.393700
     12 O2           2.1320     4.2910    -0.3950 oh         1 53H      -0.697000
     13 N3           2.8580    -0.7540     1.2830 nb         1 53H      -0.212000
     14 C9          -0.1840    -2.8750     0.9590 c3         1 53H      -0.090767
     15 C10         -1.2330    -4.1160    -0.9780 c3         1 53H      -0.090767
     16 C11         -0.8380    -1.6430    -1.1420 c3         1 53H      -0.090767
     17 N4          -3.1560    -3.6350     1.3050 n8         1 53H      -0.995200
     18 S1          -3.9430     1.3800     0.5980 s6         1 53H       1.438500
     19 O1A         -4.6710     1.9170    -0.5560 o          1 53H      -0.541500
     20 O2A         -4.5090     1.4420     1.9500 o          1 53H      -0.541500
     21 O5          -2.4290     2.0090     0.6280 os         1 53H      -0.549700
     22 C25         -1.8300     2.3190    -0.6440 c3         1 53H       0.205600
     23 C24         -0.3550     2.7280    -0.4050 c5         1 53H       0.164300
     24 C23          0.4310     3.1140    -1.6910 c5         1 53H       0.087300
     25 O3           0.0980     4.4160    -2.2020 oh         1 53H      -0.701000
     26 C22          1.8800     3.0790    -1.1250 c5         1 53H       0.103300
     27 C21          1.8040     1.8010    -0.2040 c5         1 53H       0.308300
     28 O4           0.4050     1.6170     0.1260 os         1 53H      -0.429000
     29 N9           2.2980     0.5380    -0.7580 na         1 53H      -0.301300
     30 N7           2.9400    -1.0150    -2.2840 nd         1 53H      -0.546100
     31 H2           3.4670    -2.1520     2.7030 h5         1 53H       0.051100
     32 H3          -3.3740    -2.5420    -0.4630 h1         1 53H       0.061700
     33 HN2         -3.8880    -0.4620    -0.6620 hn         1 53H       0.344500
     34 H8           2.1350     0.8950    -2.9080 h5         1 53H       0.056800
     35 HO2          1.5370     4.9550    -0.8280 ho         1 53H       0.528000
     36 H9          -0.4200    -3.6730     1.6730 hc         1 53H       0.040478
     37 H9A          0.8040    -3.0940     0.5380 hc         1 53H       0.040478
     38 H9B         -0.1050    -1.9320     1.5120 hc         1 53H       0.040478
     39 H10         -1.9800    -4.0980    -1.7810 hc         1 53H       0.040478
     40 H10A        -0.2510    -4.2850    -1.4380 hc         1 53H       0.040478
     41 H10B        -1.4460    -4.9790    -0.3360 hc         1 53H       0.040478
     42 H11         -0.7300    -0.6900    -0.6140 hc         1 53H       0.040478
     43 H11A         0.1250    -1.8630    -1.6180 hc         1 53H       0.040478
     44 H11B        -1.5820    -1.5130    -1.9370 hc         1 53H       0.040478
     45 HN4         -2.6360    -3.5770     2.1890 hn         1 53H       0.414500
     46 HN4A        -4.1280    -3.4650     1.5940 hn         1 53H       0.414500
     47 H25         -1.8480     1.4530    -1.3200 h1         1 53H       0.061200
     48 H25A        -2.3540     3.1510    -1.1340 h1         1 53H       0.061200
     49 H24         -0.3400     3.5480     0.3260 h1         1 53H       0.104700
     50 H23          0.2920     2.3460    -2.4660 h1         1 53H       0.045700
     51 HO3          0.1890     4.3880    -3.1860 ho         1 53H       0.519000
     52 H22          2.6250     2.9610    -1.9240 h1         1 53H       0.066700
     53 H21          2.3870     1.9770     0.7100 h2         1 53H       0.136700
     54 HN6          4.1790    -3.4140    -2.3320 hn         1 53H       0.508500
     55 HN6A         4.6910    -4.3850    -0.9950 hn         1 53H       0.508500
     56 N6           4.0610    -3.6750    -1.3570 nv         1 53H      -1.063900
@<TRIPOS>BOND
     1     1     3 1   
     2     1     9 1   
     3     1    10 2   
     4     2     8 ar  
     5     2    13 ar  
     6     2    31 1   
     7     3     7 1   
     8     3    17 1   
     9     3    32 1   
    10     4     5 ar  
    11     4    13 ar  
    12     4    29 1   
    13     5     6 ar  
    14     5    30 1   
    15     6     8 ar  
    16     6    56 1   
    17     7    14 1   
    18     7    15 1   
    19     7    16 1   
    20     9    18 1   
    21     9    33 1   
    22    11    29 1   
    23    11    30 2   
    24    11    34 1   
    25    12    26 1   
    26    12    35 1   
    27    14    36 1   
    28    14    37 1   
    29    14    38 1   
    30    15    39 1   
    31    15    40 1   
    32    15    41 1   
    33    16    42 1   
    34    16    43 1   
    35    16    44 1   
    36    17    45 1   
    37    17    46 1   
    38    18    19 2   
    39    18    20 2   
    40    18    21 1   
    41    21    22 1   
    42    22    23 1   
    43    22    47 1   
    44    22    48 1   
    45    23    24 1   
    46    23    28 1   
    47    23    49 1   
    48    24    25 1   
    49    24    26 1   
    50    24    50 1   
    51    25    51 1   
    52    26    27 1   
    53    26    52 1   
    54    27    28 1   
    55    27    29 1   
    56    27    53 1   
    57    54    56 1   
    58    55    56 1   
@<TRIPOS>SUBSTRUCTURE
     1 53H         1 TEMP              0 ****  ****    0 ROOT
