@<TRIPOS>MOLECULE
53H
   56    58     1     0     0
SMALL
bcc


@<TRIPOS>ATOM
      1 C1          -2.7980    -1.0780     0.8430 c          1 53H       0.655100
      2 C2           3.5470    -1.8320     1.4380 ca         1 53H       0.713900
      3 C3          -2.6150    -2.5450     0.4560 c3         1 53H       0.108500
      4 C4           2.7070    -0.5160    -0.1030 ca         1 53H       0.474800
      5 C5           2.9400    -1.4410    -1.1060 ca         1 53H      -0.240200
      6 C6           3.5350    -2.6540    -0.7120 ca         1 53H       0.781200
      7 C7          -1.1880    -2.8210    -0.0920 c3         1 53H      -0.027000
      8 N1           3.8260    -2.8140     0.5850 nb         1 53H      -0.827000
      9 N2          -3.4450    -0.3070    -0.1060 ns         1 53H      -0.688300
     10 O1          -2.4400    -0.6090     1.8970 o          1 53H      -0.523100
     11 C8           2.0500     0.2210    -2.0540 cc         1 53H       0.393700
     12 O2           2.2020     4.0560     0.0270 oh         1 53H      -0.574800
     13 N3           2.9940    -0.6580     1.1880 nb         1 53H      -0.738000
     14 C9          -0.1350    -2.7480     1.0150 c3         1 53H      -0.090767
     15 C10         -1.1830    -4.2290    -0.6920 c3         1 53H      -0.090767
     16 C11         -0.8340    -1.8180    -1.1900 c3         1 53H      -0.090767
     17 N4          -2.9460    -3.4240     1.5540 n8         1 53H      -0.884800
     18 S1          -3.9280     1.2640     0.1450 s6         1 53H       1.580100
     19 O1A         -4.5820     1.6520    -1.0810 o          1 53H      -0.612300
     20 O2A         -4.5860     1.3940     1.4140 o          1 53H      -0.612300
     21 O5          -2.5620     2.0430     0.3180 os         1 53H      -0.526500
     22 C25         -1.7530     2.3070    -0.8490 c3         1 53H       0.182400
     23 C24         -0.4020     2.7510    -0.3560 c5         1 53H       0.141100
     24 C23          0.4930     3.2570    -1.4830 c5         1 53H       0.064100
     25 O3           0.2070     4.5920    -1.7740 oh         1 53H      -0.578800
     26 C22          1.8870     3.0350    -0.8770 c5         1 53H       0.080100
     27 C21          1.6810     1.7550    -0.0610 c5         1 53H       0.255800
     28 O4           0.2990     1.6580     0.2050 os         1 53H      -0.382600
     29 N9           2.1380     0.5600    -0.7280 na         1 53H      -0.272000
     30 N7           2.5230    -0.9580    -2.3200 nd         1 53H      -0.546100
     31 H2           3.8110    -2.0260     2.4720 h5         1 53H       0.051100
     32 H3          -3.3120    -2.7680    -0.3600 h1         1 53H       0.061700
     33 HN2         -3.7610    -0.7240    -0.9730 hn         1 53H       0.344500
     34 H8           1.6320     0.8890    -2.7920 h5         1 53H       0.056800
     35 HO2          1.9280     4.8940    -0.3650 ho         1 53H       0.429000
     36 H9          -0.3200    -3.4840     1.7980 hc         1 53H       0.040478
     37 H9A          0.8490    -2.9680     0.5980 hc         1 53H       0.040478
     38 H9B         -0.0780    -1.7620     1.4760 hc         1 53H       0.040478
     39 H10         -1.8870    -4.3100    -1.5230 hc         1 53H       0.040478
     40 H10A        -0.1890    -4.4700    -1.0740 hc         1 53H       0.040478
     41 H10B        -1.4500    -4.9790     0.0520 hc         1 53H       0.040478
     42 H11         -0.6740    -0.8110    -0.7980 hc         1 53H       0.040478
     43 H11A         0.0980    -2.1160    -1.6720 hc         1 53H       0.040478
     44 H11B        -1.6000    -1.7670    -1.9680 hc         1 53H       0.040478
     45 HN4         -2.4590    -3.1430     2.3950 hn         1 53H       0.359300
     46 HN4A        -3.9350    -3.3680     1.7630 hn         1 53H       0.359300
     47 H25         -1.6630     1.4120    -1.4700 h1         1 53H       0.061200
     48 H25A        -2.2140     3.1040    -1.4330 h1         1 53H       0.061200
     49 H24         -0.5330     3.5500     0.3870 h1         1 53H       0.104700
     50 H23          0.3720     2.6190    -2.3690 h1         1 53H       0.045700
     51 HO3          0.5240     4.7950    -2.6610 ho         1 53H       0.420000
     52 H22          2.6650     2.9170    -1.6410 h1         1 53H       0.066700
     53 H21          2.2410     1.8060     0.8750 h2         1 53H       0.136700
     54 HN6          3.6190    -3.5390    -2.5510 hn         1 53H       0.453300
     55 HN6A         4.2660    -4.4740    -1.2530 hn         1 53H       0.453300
     56 N6           3.8100    -3.6360    -1.5690 nv         1 53H      -0.953500
@<TRIPOS>BOND
     1     1     3 1   
     2     1     9 1   
     3     1    10 2   
     4     2     8 ar  
     5     2    13 ar  
     6     2    31 1   
     7     3     7 1   
     8     3    17 1   
     9     3    32 1   
    10     4     5 ar  
    11     4    13 ar  
    12     4    29 1   
    13     5     6 ar  
    14     5    30 1   
    15     6     8 ar  
    16     6    56 1   
    17     7    14 1   
    18     7    15 1   
    19     7    16 1   
    20     9    18 1   
    21     9    33 1   
    22    11    29 1   
    23    11    30 2   
    24    11    34 1   
    25    12    26 1   
    26    12    35 1   
    27    14    36 1   
    28    14    37 1   
    29    14    38 1   
    30    15    39 1   
    31    15    40 1   
    32    15    41 1   
    33    16    42 1   
    34    16    43 1   
    35    16    44 1   
    36    17    45 1   
    37    17    46 1   
    38    18    19 2   
    39    18    20 2   
    40    18    21 1   
    41    21    22 1   
    42    22    23 1   
    43    22    47 1   
    44    22    48 1   
    45    23    24 1   
    46    23    28 1   
    47    23    49 1   
    48    24    25 1   
    49    24    26 1   
    50    24    50 1   
    51    25    51 1   
    52    26    27 1   
    53    26    52 1   
    54    27    28 1   
    55    27    29 1   
    56    27    53 1   
    57    54    56 1   
    58    55    56 1   
@<TRIPOS>SUBSTRUCTURE
     1 53H         1 TEMP              0 ****  ****    0 ROOT
