@<TRIPOS>MOLECULE
53I
   67    70     1     0     0
SMALL
abcg2


@<TRIPOS>ATOM
      1 O30         12.7850   -31.1220    42.2560 o          1 53I      -0.588100
      2 C16         13.0950   -31.3650    41.0860 c          1 53I       0.623300
      3 N17         13.5850   -30.3610    40.2820 n          1 53I      -0.190800
      4 N18         13.6520   -30.5600    38.9220 n2         1 53I      -0.429300
      5 C19         14.3520   -29.7250    38.2420 ce         1 53I       0.392800
      6 C25         15.1390   -28.6480    38.8160 ca         1 53I      -0.166900
      7 C26         16.1250   -27.9760    38.0890 ca         1 53I      -0.080000
      8 C27         16.9010   -27.0080    38.7120 ca         1 53I      -0.112000
      9 C28         16.6970   -26.7140    40.0600 ca         1 53I      -0.095000
     10 C29         15.7100   -27.3770    40.7830 ca         1 53I      -0.095000
     11 C24         14.9260   -28.3390    40.1620 ca         1 53I      -0.068300
     12 C20         13.7680   -29.0100    40.8610 c6         1 53I       0.186200
     13 C21         12.5120   -28.1920    40.7110 c2         1 53I      -0.252200
     14 C22         11.8860   -27.5020    41.6680 c2         1 53I      -0.076400
     15 C23         12.3240   -27.4320    43.1030 c3         1 53I      -0.060400
     16 C37         10.6570   -26.6970    41.3490 c3         1 53I      -0.060400
     17 C15         12.9700   -32.7440    40.5760 ce         1 53I      -0.238200
     18 C14         13.8570   -33.3500    39.7730 cf         1 53I      -0.100200
     19 C13         13.9110   -34.7470    39.3480 ca         1 53I      -0.039800
     20 C10         12.9030   -35.6940    39.5700 ca         1 53I       0.091100
     21 O11         11.7600   -35.3680    40.2540 os         1 53I      -0.355100
     22 C12         10.6270   -35.0810    39.4170 c3         1 53I       0.147900
     23 C07         13.0630   -37.0160    39.1170 ca         1 53I       0.116100
     24 O08         12.0330   -37.8590    39.3820 os         1 53I      -0.336100
     25 C09         12.1430   -39.2150    38.9510 c3         1 53I       0.145900
     26 C06         14.2240   -37.3860    38.4450 ca         1 53I      -0.178000
     27 C05         15.2350   -36.4530    38.2120 ca         1 53I      -0.055300
     28 C04         16.5030   -36.8720    37.5150 c3         1 53I       0.046200
     29 C03         17.5630   -37.4350    38.4350 ca         1 53I      -0.309300
     30 C32         17.4190   -37.5690    39.7980 ca         1 53I       0.176900
     31 N33         18.3590   -38.0640    40.6200 nb         1 53I      -0.269000
     32 C34         19.4990   -38.4400    40.0280 ca         1 53I       0.392900
     33 N35         20.4650   -38.9940    40.8210 nv         1 53I      -1.048900
     34 N36         19.7680   -38.3600    38.7180 nb         1 53I      -0.325000
     35 C02         18.8150   -37.8630    37.9220 ca         1 53I       0.415900
     36 N01         19.1100   -37.7590    36.6060 nv         1 53I      -1.083900
     37 C31         15.0690   -35.1540    38.6600 ca         1 53I      -0.120000
     38 H1          14.3860   -29.9010    37.1720 h4         1 53I       0.036800
     39 H2          16.2840   -28.2240    37.0470 ha         1 53I       0.116000
     40 H3          17.6650   -26.4840    38.1530 ha         1 53I       0.117000
     41 H4          17.3050   -25.9620    40.5460 ha         1 53I       0.117000
     42 H5          15.5410   -27.1370    41.8260 ha         1 53I       0.121000
     43 H6          14.0080   -29.1610    41.9080 h1         1 53I       0.097700
     44 H7          12.1190   -28.1510    39.6990 ha         1 53I       0.176000
     45 H8          13.1680   -28.0780    43.3320 hc         1 53I       0.043367
     46 H9          12.6050   -26.4050    43.3570 hc         1 53I       0.043367
     47 H10         11.4940   -27.7010    43.7610 hc         1 53I       0.043367
     48 H11         10.8150   -25.6420    41.5950 hc         1 53I       0.043367
     49 H12         10.3850   -26.7710    40.2970 hc         1 53I       0.043367
     50 H13          9.8100   -27.0350    41.9550 hc         1 53I       0.043367
     51 H14         12.1670   -33.2970    41.0380 ha         1 53I       0.219000
     52 H15         14.6810   -32.7590    39.3930 ha         1 53I       0.177000
     53 H16          9.8030   -34.8430    40.0860 h1         1 53I       0.040367
     54 H17         10.8400   -34.2230    38.7740 h1         1 53I       0.040367
     55 H18         10.3710   -35.9480    38.8070 h1         1 53I       0.040367
     56 H19         11.2250   -39.7020    39.2700 h1         1 53I       0.043367
     57 H20         12.2340   -39.2760    37.8640 h1         1 53I       0.043367
     58 H21         13.0010   -39.7050    39.4180 h1         1 53I       0.043367
     59 H22         14.3530   -38.4010    38.0990 ha         1 53I       0.121000
     60 H23         16.9170   -36.0100    36.9800 hc         1 53I       0.043700
     61 H24         16.2600   -37.6180    36.7510 hc         1 53I       0.043700
     62 H25         16.4940   -37.2610    40.2720 h4         1 53I       0.028100
     63 H26         21.3990   -39.0310    40.4460 hn         1 53I       0.484000
     64 H27         20.3890   -38.8250    41.8110 hn         1 53I       0.484000
     65 H28         19.9570   -38.1870    36.2700 hn         1 53I       0.491500
     66 H29         18.3950   -37.5520    35.9300 hn         1 53I       0.491500
     67 H30         15.8500   -34.4240    38.4830 ha         1 53I       0.119000
@<TRIPOS>BOND
     1     1     2 2   
     2     2     3 1   
     3     2    17 1   
     4     3     4 1   
     5     3    12 1   
     6     4     5 2   
     7     5     6 1   
     8     5    38 1   
     9     6     7 ar  
    10     6    11 ar  
    11     7     8 ar  
    12     7    39 1   
    13     8     9 ar  
    14     8    40 1   
    15     9    10 ar  
    16     9    41 1   
    17    10    11 ar  
    18    10    42 1   
    19    11    12 1   
    20    12    13 1   
    21    12    43 1   
    22    13    14 2   
    23    13    44 1   
    24    14    15 1   
    25    14    16 1   
    26    15    45 1   
    27    15    46 1   
    28    15    47 1   
    29    16    48 1   
    30    16    49 1   
    31    16    50 1   
    32    17    18 2   
    33    17    51 1   
    34    18    19 1   
    35    18    52 1   
    36    19    20 ar  
    37    19    37 ar  
    38    20    21 1   
    39    20    23 ar  
    40    21    22 1   
    41    22    53 1   
    42    22    54 1   
    43    22    55 1   
    44    23    24 1   
    45    23    26 ar  
    46    24    25 1   
    47    25    56 1   
    48    25    57 1   
    49    25    58 1   
    50    26    27 ar  
    51    26    59 1   
    52    27    28 1   
    53    27    37 ar  
    54    28    29 1   
    55    28    60 1   
    56    28    61 1   
    57    29    30 ar  
    58    29    35 ar  
    59    30    31 ar  
    60    30    62 1   
    61    31    32 ar  
    62    32    33 1   
    63    32    34 ar  
    64    33    63 1   
    65    33    64 1   
    66    34    35 ar  
    67    35    36 1   
    68    36    65 1   
    69    36    66 1   
    70    37    67 1   
@<TRIPOS>SUBSTRUCTURE
     1 53I         1 TEMP              0 ****  ****    0 ROOT
